<?xml version="1.0" encoding="UTF-8"?>

<!-- generated on 07/17/15 10:20:29 by SUMO polyconvert Version 0.21.0
<?xml version="1.0" encoding="UTF-8"?>

<configuration xmlns:xsi="http://www.w3.org/2001/XMLSchema-instance" xsi:noNamespaceSchemaLocation="http://sumo-sim.org/xsd/polyconvertConfiguration.xsd">

    <input>
        <osm-files value="C:\veinsSimConnectionToUnity\Veins\darmstadt\darmstadt.osm"/>
        <type-file value="C:\veinsSimConnectionToUnity\Veins\darmstadt\sumo-0.21.0\data\typemap\osmPolyconvert.typ.xml"/>
    </input>

    <output>
        <output-file value="C:\veinsSimConnectionToUnity\Veins\darmstadt\darmstadt.poly.xml"/>
    </output>

    <projection>
        <proj.scale value="0"/>
        <proj.utm value="true"/>
    </projection>

</configuration>
-->

<additional xmlns:xsi="http://www.w3.org/2001/XMLSchema-instance" xsi:noNamespaceSchemaLocation="http://sumo-sim.org/xsd/additional_file.xsd">
    <poly id="101507894" type="building" color="255,230,230" fill="1" layer="-1.00" shape="475737.91,5524796.07 475740.01,5524788.42 475743.87,5524774.36 475746.22,5524765.82 475755.48,5524768.35 475747.17,5524798.59 475737.91,5524796.07"/>
    <poly id="101507895" type="building" color="255,230,230" fill="1" layer="-1.00" shape="475716.49,5524851.99 475723.62,5524856.68 475719.17,5524863.38 475714.74,5524870.06 475706.92,5524864.91 475715.80,5524851.52 475716.49,5524851.99"/>
    <poly id="101507897" type="building" color="255,230,230" fill="1" layer="-1.00" shape="475666.92,5524703.61 475657.10,5524704.89 475658.43,5524714.86 475668.21,5524713.67 475666.92,5524703.61"/>
    <poly id="101507898" type="building" color="255,230,230" fill="1" layer="-1.00" shape="475634.43,5524827.12 475648.31,5524837.52 475627.55,5524864.64 475612.96,5524853.37 475634.43,5524827.12"/>
    <poly id="101507900" type="building" color="255,230,230" fill="1" layer="-1.00" shape="475660.38,5524812.20 475651.68,5524810.52 475653.28,5524802.26 475654.26,5524797.24 475658.47,5524798.05 475662.96,5524798.92 475660.38,5524812.20"/>
    <poly id="101507902" type="building" color="255,230,230" fill="1" layer="-1.00" shape="475674.69,5524822.73 475692.88,5524836.77 475686.56,5524844.93 475668.36,5524830.88 475674.69,5524822.73"/>
    <poly id="101507904" type="building" color="255,230,230" fill="1" layer="-1.00" shape="475794.16,5524752.34 475786.33,5524751.20 475783.76,5524750.61 475780.02,5524770.69 475775.18,5524790.49 475785.24,5524793.03 475790.06,5524773.15 475794.16,5524752.34"/>
    <poly id="101507905" type="building" color="255,230,230" fill="1" layer="-1.00" shape="475682.84,5524792.52 475684.80,5524781.46 475677.15,5524780.13 475674.87,5524790.97 475682.84,5524792.52"/>
    <poly id="101507906" type="building" color="255,230,230" fill="1" layer="-1.00" shape="475725.77,5524831.70 475728.49,5524823.89 475733.58,5524809.25 475736.23,5524801.63 475745.15,5524804.72 475734.69,5524834.78 475725.77,5524831.70"/>
    <poly id="101507911" type="building" color="255,230,230" fill="1" layer="-1.00" shape="475659.69,5524724.29 475654.39,5524725.03 475639.80,5524726.78 475625.01,5524728.86 475625.26,5524732.53 475626.37,5524749.00 475658.14,5524742.42 475662.00,5524741.63 475661.56,5524738.35 475641.97,5524741.00 475641.48,5524735.37 475660.77,5524732.43 475659.69,5524724.29"/>
    <poly id="101507913" type="building" color="255,230,230" fill="1" layer="-1.00" shape="475641.64,5524794.80 475645.16,5524776.72 475655.80,5524778.77 475661.98,5524779.96 475658.47,5524798.05 475654.26,5524797.24 475641.64,5524794.80"/>
    <poly id="101507916" type="building" color="255,230,230" fill="1" layer="-1.00" shape="475715.12,5524793.43 475715.55,5524791.01 475702.85,5524788.82 475704.30,5524780.48 475721.92,5524783.53 475720.06,5524794.29 475715.12,5524793.43"/>
    <poly id="101507917" type="building" color="255,230,230" fill="1" layer="-1.00" shape="475672.80,5524854.43 475649.94,5524883.88 475658.35,5524890.37 475681.22,5524860.93 475672.80,5524854.43"/>
    <poly id="101507918" type="building" color="255,230,230" fill="1" layer="-1.00" shape="475770.75,5524840.61 475784.19,5524801.85 475774.50,5524798.51 475761.06,5524837.27 475770.75,5524840.61"/>
    <poly id="102195599" type="parking" color="184,184,179" fill="1" layer="-1.00" shape="474126.97,5525071.90 474178.96,5525061.06 474168.87,5525017.77 474179.88,5524976.91 474159.95,5524964.34 474135.75,5524997.45 474117.87,5525029.30 474126.97,5525071.90"/>
    <poly id="102294348" type="building" color="255,230,230" fill="1" layer="-1.00" shape="474135.59,5525525.03 474099.55,5525408.52 474134.02,5525397.91 474170.06,5525514.43 474135.59,5525525.03"/>
    <poly id="102555160" type="farm" color="242,242,204" fill="1" layer="-3.00" shape="473449.86,5524227.35 473447.75,5524165.46 473449.67,5524098.61 473451.45,5524049.24 473456.20,5523995.78 473477.56,5523872.28 473487.99,5523874.53 473471.77,5523954.88 473461.84,5524021.53 473457.75,5524075.35 473459.10,5524125.07 473465.09,5524180.04 473469.96,5524232.32 473449.86,5524227.35"/>
    <poly id="102655949" type="building" color="255,230,230" fill="1" layer="-1.00" shape="474063.96,5525028.45 474061.16,5524980.57 474060.58,5524970.58 474057.01,5524909.29 474073.68,5524908.32 474072.85,5524894.06 474044.76,5524895.70 474052.54,5525029.12 474063.96,5525028.45"/>
    <poly id="102655950" type="building" color="255,230,230" fill="1" layer="-1.00" shape="474052.60,5525078.40 474051.35,5525058.62 474075.19,5525046.79 474078.90,5525055.42 474062.75,5525063.37 474063.39,5525078.35 474052.60,5525078.40"/>
    <poly id="103960333" type="shop" color="237,199,255" fill="1" layer="-1.00" shape="473479.81,5524224.33 473479.29,5524210.97 473473.47,5524061.01 473583.33,5524074.52 473577.65,5524103.90 473654.34,5524120.66 473623.53,5524233.30 473597.66,5524243.33 473503.96,5524228.23 473479.81,5524224.33"/>
    <poly id="105704876" type="building" color="255,230,230" fill="1" layer="-1.00" shape="475520.11,5524935.63 475524.88,5524929.51 475535.63,5524937.82 475530.86,5524943.94 475520.11,5524935.63"/>
    <poly id="105704879" type="building" color="255,230,230" fill="1" layer="-1.00" shape="475531.78,5524993.46 475539.29,5524982.53 475549.58,5524989.55 475542.06,5525000.48 475531.78,5524993.46"/>
    <poly id="105704880" type="building" color="255,230,230" fill="1" layer="-1.00" shape="475387.12,5525082.14 475390.05,5525084.40 475391.59,5525085.58 475392.22,5525094.22 475388.01,5525099.20 475379.48,5525092.85 475387.12,5525082.14"/>
    <poly id="105704881" type="building" color="255,230,230" fill="1" layer="-1.00" shape="475602.32,5524909.61 475612.05,5524895.94 475603.85,5524890.14 475601.72,5524893.14 475597.69,5524898.80 475594.13,5524903.81 475602.32,5524909.61"/>
    <poly id="105704884" type="building" color="255,230,230" fill="1" layer="-1.00" shape="475519.51,5525051.83 475525.46,5525043.30 475535.19,5525050.04 475529.25,5525058.57 475519.51,5525051.83"/>
    <poly id="105704885" type="building" color="255,230,230" fill="1" layer="-1.00" shape="475505.55,5525051.36 475499.50,5525060.06 475489.74,5525053.30 475495.79,5525044.61 475505.55,5525051.36"/>
    <poly id="105704886" type="building" color="255,230,230" fill="1" layer="-1.00" shape="475475.37,5525079.14 475475.69,5525065.36 475484.40,5525065.83 475485.61,5525071.77 475489.80,5525073.89 475486.44,5525079.50 475475.37,5525079.14"/>
    <poly id="105704888" type="building" color="255,230,230" fill="1" layer="-1.00" shape="475558.86,5524931.30 475565.58,5524922.99 475572.89,5524928.89 475566.17,5524937.19 475558.86,5524931.30"/>
    <poly id="105704889" type="building" color="255,230,230" fill="1" layer="-1.00" shape="475473.15,5525088.93 475485.46,5525090.11 475484.25,5525102.19 475472.37,5525101.17 475472.36,5525097.22 475473.15,5525088.93"/>
    <poly id="105704891" type="building" color="255,230,230" fill="1" layer="-1.00" shape="475513.10,5525001.70 475505.42,5524995.33 475497.18,5525005.20 475504.86,5525011.57 475507.45,5525008.46 475513.10,5525001.70"/>
    <poly id="105704893" type="building" color="255,230,230" fill="1" layer="-1.00" shape="475568.09,5524938.57 475574.45,5524929.32 475584.80,5524936.39 475578.44,5524945.64 475568.09,5524938.57"/>
    <poly id="105704895" type="building" color="255,230,230" fill="1" layer="-1.00" shape="475423.51,5525095.73 475413.21,5525095.16 475413.89,5525083.68 475424.04,5525084.23 475423.51,5525095.73"/>
    <poly id="105704896" type="building" color="255,230,230" fill="1" layer="-1.00" shape="475484.73,5525060.51 475494.48,5525067.27 475489.80,5525073.89 475485.61,5525071.77 475484.40,5525065.83 475484.73,5525060.51"/>
    <poly id="105704898" type="building" color="255,230,230" fill="1" layer="-1.00" shape="475580.59,5524961.56 475586.80,5524952.53 475600.77,5524962.08 475594.57,5524971.11 475580.59,5524961.56"/>
    <poly id="105704899" type="building" color="255,230,230" fill="1" layer="-1.00" shape="475505.55,5525051.36 475495.79,5525044.61 475501.94,5525035.78 475511.70,5525042.53 475505.55,5525051.36"/>
    <poly id="105704900" type="building" color="255,230,230" fill="1" layer="-1.00" shape="475449.50,5525066.49 475432.25,5525066.97 475431.90,5525078.14 475449.41,5525078.15 475449.50,5525066.49"/>
    <poly id="105704902" type="building" color="255,230,230" fill="1" layer="-1.00" shape="475421.37,5525042.72 475431.61,5525050.64 475426.20,5525057.61 475422.35,5525054.63 475415.95,5525049.68 475421.37,5525042.72"/>
    <poly id="105704903" type="building" color="255,230,230" fill="1" layer="-1.00" shape="475543.38,5525016.80 475548.58,5525009.14 475557.72,5525015.31 475552.52,5525022.97 475543.38,5525016.80"/>
    <poly id="105704904" type="building" color="255,230,230" fill="1" layer="-1.00" shape="475586.50,5524934.32 475593.85,5524923.62 475584.76,5524917.41 475581.27,5524922.49 475575.02,5524918.21 475571.16,5524923.84 475586.50,5524934.32"/>
    <poly id="105704907" type="building" color="255,230,230" fill="1" layer="-1.00" shape="475496.78,5524945.67 475506.09,5524952.86 475500.19,5524960.45 475490.88,5524953.25 475496.78,5524945.67"/>
    <poly id="105704908" type="building" color="255,230,230" fill="1" layer="-1.00" shape="475534.81,5524914.24 475543.53,5524920.98 475546.49,5524923.27 475541.63,5524929.52 475529.95,5524920.49 475534.81,5524914.24"/>
    <poly id="105704909" type="building" color="255,230,230" fill="1" layer="-1.00" shape="475559.18,5524949.16 475565.91,5524939.35 475577.18,5524947.05 475570.44,5524956.86 475559.18,5524949.16"/>
    <poly id="105704912" type="building" color="255,230,230" fill="1" layer="-1.00" shape="475526.19,5524907.56 475534.81,5524914.24 475529.95,5524920.49 475528.47,5524922.38 475519.84,5524915.72 475526.19,5524907.56"/>
    <poly id="105704913" type="building" color="255,230,230" fill="1" layer="-1.00" shape="475465.06,5525064.54 475449.54,5525064.14 475449.50,5525066.49 475449.41,5525078.15 475464.62,5525078.64 475465.06,5525064.54"/>
    <poly id="105704914" type="building" color="255,230,230" fill="1" layer="-1.00" shape="475534.75,5524897.05 475543.46,5524886.18 475553.44,5524894.12 475549.01,5524899.66 475553.57,5524903.29 475549.31,5524908.64 475534.75,5524897.05"/>
    <poly id="105704916" type="building" color="255,230,230" fill="1" layer="-1.00" shape="475392.22,5525094.22 475399.70,5525094.52 475400.28,5525083.02 475391.37,5525082.79 475390.05,5525084.40 475391.59,5525085.58 475392.22,5525094.22"/>
    <poly id="105704919" type="building" color="255,230,230" fill="1" layer="-1.00" shape="475514.29,5525059.33 475519.51,5525051.83 475529.25,5525058.57 475524.03,5525066.07 475514.29,5525059.33"/>
    <poly id="105704920" type="building" color="255,230,230" fill="1" layer="-1.00" shape="475408.20,5525059.49 475415.43,5525063.67 475422.35,5525054.63 475415.95,5525049.68 475408.20,5525059.49"/>
    <poly id="105704923" type="building" color="255,230,230" fill="1" layer="-1.00" shape="475400.28,5525083.02 475399.70,5525094.52 475413.21,5525095.16 475413.89,5525083.68 475400.28,5525083.02"/>
    <poly id="105704924" type="building" color="255,230,230" fill="1" layer="-1.00" shape="475475.51,5525010.28 475479.15,5525005.97 475485.03,5525011.10 475480.96,5525015.54 475475.51,5525010.28"/>
    <poly id="105704925" type="building" color="255,230,230" fill="1" layer="-1.00" shape="475432.25,5525066.97 475420.36,5525066.82 475420.07,5525077.65 475431.90,5525078.14 475432.25,5525066.97"/>
    <poly id="105704926" type="building" color="255,230,230" fill="1" layer="-1.00" shape="475590.20,5524949.26 475598.78,5524936.41 475610.67,5524944.29 475602.09,5524957.14 475590.20,5524949.26"/>
    <poly id="105704929" type="building" color="255,230,230" fill="1" layer="-1.00" shape="475501.18,5524970.20 475511.15,5524956.76 475521.39,5524964.32 475511.43,5524977.75 475501.18,5524970.20"/>
    <poly id="105704931" type="building" color="255,230,230" fill="1" layer="-1.00" shape="475503.77,5525013.87 475524.07,5525027.74 475518.09,5525036.44 475497.79,5525022.57 475503.77,5525013.87"/>
    <poly id="105704932" type="building" color="255,230,230" fill="1" layer="-1.00" shape="475507.45,5525008.46 475513.10,5525001.70 475514.25,5525002.65 475515.88,5525000.68 475521.78,5525005.57 475518.03,5525010.07 475516.76,5525009.02 475513.23,5525013.25 475507.45,5525008.46"/>
    <poly id="105704934" type="building" color="255,230,230" fill="1" layer="-1.00" shape="475610.02,5524918.82 475618.69,5524906.11 475622.96,5524909.00 475628.15,5524912.53 475619.49,5524925.24 475610.02,5524918.82"/>
    <poly id="105704935" type="building" color="255,230,230" fill="1" layer="-1.00" shape="475595.82,5524918.74 475602.32,5524909.61 475594.13,5524903.81 475589.69,5524900.67 475587.57,5524903.63 475592.00,5524906.76 475587.60,5524912.93 475595.82,5524918.74"/>
    <poly id="105704936" type="building" color="255,230,230" fill="1" layer="-1.00" shape="475508.61,5525067.50 475514.29,5525059.33 475524.03,5525066.07 475518.34,5525074.24 475508.61,5525067.50"/>
    <poly id="105704939" type="building" color="255,230,230" fill="1" layer="-1.00" shape="475494.48,5525067.27 475484.73,5525060.51 475489.74,5525053.30 475499.50,5525060.06 475494.48,5525067.27"/>
    <poly id="105704941" type="building" color="255,230,230" fill="1" layer="-1.00" shape="475525.46,5525043.30 475531.51,5525034.60 475541.24,5525041.34 475535.19,5525050.04 475525.46,5525043.30"/>
    <poly id="105704943" type="building" color="255,230,230" fill="1" layer="-1.00" shape="475560.92,5524992.28 475568.95,5524980.46 475579.04,5524987.29 475571.02,5524999.11 475560.92,5524992.28"/>
    <poly id="105704945" type="building" color="255,230,230" fill="1" layer="-1.00" shape="475559.02,5524889.07 475565.20,5524881.25 475574.52,5524888.56 475587.74,5524871.84 475595.30,5524877.79 475590.14,5524884.31 475585.76,5524889.86 475582.06,5524894.53 475580.59,5524893.37 475574.42,5524901.17 475559.02,5524889.07"/>
    <poly id="105704946" type="building" color="255,230,230" fill="1" layer="-1.00" shape="475552.67,5525004.33 475560.92,5524992.28 475571.02,5524999.11 475562.77,5525010.42 475552.67,5525004.33"/>
    <poly id="105704947" type="building" color="255,230,230" fill="1" layer="-1.00" shape="475541.54,5524981.46 475548.86,5524970.82 475557.55,5524976.77 475550.25,5524987.41 475541.54,5524981.46"/>
    <poly id="105704948" type="building" color="255,230,230" fill="1" layer="-1.00" shape="475477.18,5524991.32 475486.91,5524998.85 475482.92,5525003.97 475473.20,5524996.44 475477.18,5524991.32"/>
    <poly id="105704949" type="building" color="255,230,230" fill="1" layer="-1.00" shape="475610.02,5524918.82 475619.49,5524925.24 475613.16,5524934.51 475610.35,5524932.60 475603.70,5524928.09 475610.02,5524918.82"/>
    <poly id="105704950" type="building" color="255,230,230" fill="1" layer="-1.00" shape="475477.46,5524970.74 475487.33,5524978.37 475480.96,5524986.56 475471.08,5524978.93 475477.46,5524970.74"/>
    <poly id="105704951" type="building" color="255,230,230" fill="1" layer="-1.00" shape="475539.98,5524937.93 475548.15,5524944.58 475537.46,5524957.67 475529.29,5524951.02 475539.98,5524937.93"/>
    <poly id="105704953" type="building" color="255,230,230" fill="1" layer="-1.00" shape="475547.18,5524881.46 475554.19,5524872.59 475565.20,5524881.25 475559.02,5524889.07 475558.19,5524890.12 475547.18,5524881.46"/>
    <poly id="105704954" type="building" color="255,230,230" fill="1" layer="-1.00" shape="475440.34,5525095.47 475449.05,5525096.08 475449.77,5525085.95 475441.06,5525085.33 475440.34,5525095.47"/>
    <poly id="105704956" type="building" color="255,230,230" fill="1" layer="-1.00" shape="475528.31,5524905.14 475533.23,5524899.69 475541.51,5524906.31 475540.73,5524907.77 475537.34,5524912.13 475528.31,5524905.14"/>
    <poly id="105704957" type="building" color="255,230,230" fill="1" layer="-1.00" shape="475475.69,5525065.36 475465.06,5525064.54 475464.62,5525078.64 475475.37,5525079.14 475475.69,5525065.36"/>
    <poly id="105704958" type="building" color="255,230,230" fill="1" layer="-1.00" shape="475516.79,5524919.70 475525.32,5524926.30 475518.80,5524934.69 475510.26,5524928.08 475516.79,5524919.70"/>
    <poly id="105704959" type="building" color="255,230,230" fill="1" layer="-1.00" shape="475494.89,5524965.22 475503.35,5524971.75 475499.84,5524976.26 475491.38,5524969.73 475494.89,5524965.22"/>
    <poly id="105704963" type="building" color="255,230,230" fill="1" layer="-1.00" shape="475543.53,5524920.98 475548.89,5524914.10 475540.73,5524907.77 475541.51,5524906.31 475554.86,5524915.88 475548.72,5524924.99 475546.49,5524923.27 475543.53,5524920.98"/>
    <poly id="105704965" type="building" color="255,230,230" fill="1" layer="-1.00" shape="475460.97,5525087.78 475473.15,5525088.93 475472.36,5525097.22 475467.00,5525096.70 475466.40,5525102.96 475459.58,5525102.32 475459.87,5525099.37 475460.97,5525087.78"/>
    <poly id="105704967" type="building" color="255,230,230" fill="1" layer="-1.00" shape="475408.20,5525059.49 475400.95,5525069.08 475403.81,5525077.95 475413.32,5525066.87 475415.43,5525063.67 475408.20,5525059.49"/>
    <poly id="105704969" type="building" color="255,230,230" fill="1" layer="-1.00" shape="475420.36,5525066.82 475420.07,5525077.65 475403.81,5525077.95 475413.32,5525066.87 475420.36,5525066.82"/>
    <poly id="105704970" type="building" color="255,230,230" fill="1" layer="-1.00" shape="475569.02,5524978.87 475576.02,5524968.58 475587.68,5524976.44 475580.69,5524986.75 475569.02,5524978.87"/>
    <poly id="105704972" type="building" color="255,230,230" fill="1" layer="-1.00" shape="475424.04,5525084.23 475438.52,5525085.03 475437.89,5525096.51 475423.51,5525095.73 475424.04,5525084.23"/>
    <poly id="105704973" type="building" color="255,230,230" fill="1" layer="-1.00" shape="475516.00,5524939.80 475525.35,5524947.04 475520.92,5524952.74 475511.56,5524945.51 475516.00,5524939.80"/>
    <poly id="105704974" type="building" color="255,230,230" fill="1" layer="-1.00" shape="475522.94,5525006.32 475531.78,5524993.46 475542.06,5525000.48 475533.22,5525013.36 475522.94,5525006.32"/>
    <poly id="105704976" type="building" color="255,230,230" fill="1" layer="-1.00" shape="475550.41,5524963.91 475557.43,5524953.71 475567.50,5524960.59 475560.49,5524970.79 475550.41,5524963.91"/>
    <poly id="105704977" type="building" color="255,230,230" fill="1" layer="-1.00" shape="475467.43,5524983.77 475477.18,5524991.32 475473.20,5524996.44 475471.35,5524998.82 475461.59,5524991.28 475467.43,5524983.77"/>
    <poly id="105704978" type="building" color="255,230,230" fill="1" layer="-1.00" shape="475506.81,5524932.70 475516.00,5524939.80 475511.56,5524945.51 475510.19,5524947.28 475501.00,5524940.18 475506.81,5524932.70"/>
    <poly id="105704980" type="building" color="255,230,230" fill="1" layer="-1.00" shape="475516.47,5525015.74 475522.94,5525006.32 475533.22,5525013.36 475526.75,5525022.77 475516.47,5525015.74"/>
    <poly id="105704982" type="building" color="255,230,230" fill="1" layer="-1.00" shape="475451.09,5525087.14 475460.97,5525087.78 475459.87,5525099.37 475450.71,5525098.58 475451.09,5525087.14"/>
    <poly id="105704984" type="building" color="255,230,230" fill="1" layer="-1.00" shape="475486.56,5524958.78 475494.89,5524965.22 475491.38,5524969.73 475488.92,5524972.90 475480.59,5524966.45 475486.56,5524958.78"/>
    <poly id="105718690" type="building" color="255,230,230" fill="1" layer="-1.00" shape="474710.55,5525356.77 474710.63,5525368.45 474720.76,5525368.39 474720.69,5525356.71 474710.55,5525356.77"/>
    <poly id="105718692" type="building" color="255,230,230" fill="1" layer="-1.00" shape="474750.66,5525335.32 474760.92,5525335.64 474761.46,5525347.55 474750.32,5525347.18 474750.66,5525335.32"/>
    <poly id="105718694" type="building" color="255,230,230" fill="1" layer="-1.00" shape="474720.69,5525356.71 474732.03,5525356.82 474732.01,5525368.30 474720.76,5525368.39 474720.69,5525356.71"/>
    <poly id="105718695" type="building" color="255,230,230" fill="1" layer="-1.00" shape="474734.88,5525357.46 474749.93,5525357.76 474749.55,5525369.64 474734.59,5525369.58 474734.88,5525357.46"/>
    <poly id="105718697" type="building" color="255,230,230" fill="1" layer="-1.00" shape="474718.72,5525346.14 474733.12,5525346.61 474733.46,5525334.83 474719.06,5525334.42 474718.72,5525346.14"/>
    <poly id="105718698" type="building" color="255,230,230" fill="1" layer="-1.00" shape="474733.46,5525334.83 474750.66,5525335.32 474750.32,5525347.18 474733.12,5525346.61 474733.46,5525334.83"/>
    <poly id="105718700" type="building" color="255,230,230" fill="1" layer="-1.00" shape="474749.93,5525357.76 474758.86,5525358.06 474758.47,5525369.92 474749.55,5525369.64 474749.93,5525357.76"/>
    <poly id="106805382" type="building" color="255,230,230" fill="1" layer="-1.00" shape="475813.56,5524327.23 475813.78,5524338.68 475801.75,5524338.90 475801.53,5524327.46 475813.56,5524327.23"/>
    <poly id="106805383" type="building" color="255,230,230" fill="1" layer="-1.00" shape="475758.63,5524348.96 475758.34,5524328.77 475768.82,5524328.57 475768.84,5524329.78 475768.93,5524334.64 475769.20,5524348.95 475767.23,5524348.95 475758.63,5524348.96"/>
    <poly id="106805384" type="building" color="255,230,230" fill="1" layer="-1.00" shape="475781.13,5524378.51 475781.01,5524367.53 475798.08,5524367.35 475798.21,5524378.31 475781.13,5524378.51"/>
    <poly id="106805385" type="building" color="255,230,230" fill="1" layer="-1.00" shape="475774.37,5524339.41 475774.29,5524334.55 475774.19,5524329.67 475774.16,5524327.97 475801.53,5524327.46 475801.75,5524338.90 475774.37,5524339.41"/>
    <poly id="106805386" type="building" color="255,230,230" fill="1" layer="-1.00" shape="475768.46,5524365.29 475767.23,5524348.95 475758.63,5524348.96 475756.16,5524348.96 475757.43,5524366.11 475768.46,5524365.29"/>
    <poly id="106805387" type="building" color="255,230,230" fill="1" layer="-1.00" shape="475806.77,5524359.21 475806.43,5524344.72 475812.48,5524344.58 475812.82,5524359.07 475806.77,5524359.21"/>
    <poly id="106805388" type="building" color="255,230,230" fill="1" layer="-1.00" shape="475798.08,5524367.35 475798.07,5524365.97 475817.31,5524365.75 475817.45,5524377.80 475807.58,5524377.91 475807.61,5524380.68 475804.63,5524380.71 475804.60,5524378.25 475798.21,5524378.31 475798.08,5524367.35"/>
    <poly id="106806099" type="building" color="255,230,230" fill="1" layer="-1.00" shape="475645.44,5524450.98 475643.58,5524439.87 475654.79,5524438.29 475655.22,5524440.95 475656.28,5524440.92 475657.74,5524449.53 475645.44,5524450.98"/>
    <poly id="106806100" type="building" color="255,230,230" fill="1" layer="-1.00" shape="475780.25,5524440.53 475800.11,5524438.67 475801.22,5524450.56 475781.36,5524452.42 475780.25,5524440.53"/>
    <poly id="106806101" type="building" color="255,230,230" fill="1" layer="-1.00" shape="475814.00,5524437.38 475813.89,5524433.16 475808.50,5524433.29 475808.14,5524417.88 475820.28,5524417.59 475820.73,5524436.75 475814.00,5524437.38"/>
    <poly id="106806102" type="building" color="255,230,230" fill="1" layer="-1.00" shape="475820.73,5524436.75 475821.85,5524448.64 475801.22,5524450.56 475800.11,5524438.67 475814.00,5524437.38 475820.73,5524436.75"/>
    <poly id="106806104" type="building" color="255,230,230" fill="1" layer="-1.00" shape="475762.20,5524408.78 475761.94,5524399.49 475815.52,5524398.01 475815.78,5524407.30 475762.20,5524408.78"/>
    <poly id="106996504" type="tourism" color="207,245,201" fill="1" layer="-2.00" shape="475819.73,5524917.80 475841.54,5524922.25 475893.89,5524918.81 475921.26,5524920.20 475946.46,5524928.01 475946.74,5524937.22 475925.26,5524972.27 475918.29,5524973.28 475815.25,5524935.00 475819.73,5524917.80"/>
    <poly id="106996505" type="building" color="255,230,230" fill="1" layer="-1.00" shape="475824.51,5524902.53 475824.21,5524891.18 475840.32,5524890.77 475840.62,5524902.12 475824.51,5524902.53"/>
    <poly id="108342134" type="building" color="255,230,230" fill="1" layer="-1.00" shape="475189.69,5525310.13 475184.62,5525301.50 475202.93,5525290.99 475208.19,5525300.11 475193.43,5525308.58 475199.28,5525318.74 475195.74,5525320.77 475191.69,5525313.64 475189.69,5525310.13"/>
    <poly id="108342135" type="building" color="255,230,230" fill="1" layer="-1.00" shape="475166.77,5525328.14 475159.75,5525315.99 475174.40,5525307.56 475181.44,5525319.68 475166.77,5525328.14"/>
    <poly id="108342136" type="building" color="255,230,230" fill="1" layer="-1.00" shape="475176.22,5525306.40 475184.62,5525301.50 475189.69,5525310.13 475181.30,5525315.04 475176.22,5525306.40"/>
    <poly id="108342137" type="building" color="255,230,230" fill="1" layer="-1.00" shape="475186.24,5525353.21 475184.40,5525327.97 475191.19,5525327.48 475193.03,5525352.72 475186.24,5525353.21"/>
    <poly id="108342138" type="building" color="255,230,230" fill="1" layer="-1.00" shape="475142.61,5525342.06 475144.14,5525344.57 475138.15,5525348.18 475134.37,5525341.98 475127.26,5525346.29 475123.56,5525340.21 475127.37,5525337.89 475126.12,5525335.83 475135.39,5525330.22 475142.61,5525342.06"/>
    <poly id="108342139" type="building" color="255,230,230" fill="1" layer="-1.00" shape="475166.77,5525328.14 475155.25,5525334.74 475148.24,5525322.60 475159.75,5525315.99 475166.77,5525328.14"/>
    <poly id="108342141" type="building" color="255,230,230" fill="1" layer="-1.00" shape="475218.35,5525294.28 475226.78,5525289.39 475221.49,5525280.33 475213.10,5525285.16 475218.35,5525294.28"/>
    <poly id="108342142" type="building" color="255,230,230" fill="1" layer="-1.00" shape="475155.25,5525334.74 475142.61,5525342.06 475135.39,5525330.22 475148.24,5525322.60 475155.25,5525334.74"/>
    <poly id="108342143" type="building" color="255,230,230" fill="1" layer="-1.00" shape="475208.19,5525300.11 475218.35,5525294.28 475213.10,5525285.16 475202.93,5525290.99 475208.19,5525300.11"/>
    <poly id="108343323" type="building" color="255,230,230" fill="1" layer="-1.00" shape="475238.97,5525265.03 475254.75,5525271.11 475250.33,5525283.21 475245.66,5525281.46 475235.05,5525277.59 475238.97,5525265.03"/>
    <poly id="108343325" type="building" color="255,230,230" fill="1" layer="-1.00" shape="475246.71,5525255.28 475251.20,5525249.30 475259.63,5525254.39 475265.79,5525258.42 475261.48,5525264.33 475246.71,5525255.28"/>
    <poly id="108343326" type="farm" color="242,242,204" fill="1" layer="-3.00" shape="475204.37,5525273.10 475206.31,5525272.03 475223.18,5525262.76 475238.49,5525253.62 475233.71,5525250.08 475183.80,5525223.34 475168.13,5525252.46 475167.21,5525253.96 475204.37,5525273.10"/>
    <poly id="108343331" type="building" color="255,230,230" fill="1" layer="-1.00" shape="475251.20,5525249.30 475260.13,5525237.12 475267.85,5525242.07 475259.63,5525254.39 475251.20,5525249.30"/>
    <poly id="108432026" type="building" color="255,230,230" fill="1" layer="-1.00" shape="475203.45,5525355.51 475200.45,5525361.70 475210.05,5525366.34 475213.06,5525360.16 475203.45,5525355.51"/>
    <poly id="108432027" type="building" color="255,230,230" fill="1" layer="-1.00" shape="475235.05,5525277.59 475232.40,5525285.36 475243.00,5525289.03 475245.66,5525281.46 475235.05,5525277.59"/>
    <poly id="108432028" type="building" color="255,230,230" fill="1" layer="-1.00" shape="475250.33,5525283.21 475247.68,5525293.49 475260.56,5525295.84 475262.80,5525286.98 475250.33,5525283.21"/>
    <poly id="108432029" type="building" color="255,230,230" fill="1" layer="-1.00" shape="475147.34,5525399.05 475147.42,5525394.65 475149.70,5525393.81 475147.27,5525387.34 475142.00,5525389.29 475134.14,5525385.37 475129.82,5525394.09 475137.21,5525397.61 475139.51,5525398.73 475147.34,5525399.05"/>
    <poly id="108432030" type="building" color="255,230,230" fill="1" layer="-1.00" shape="475200.45,5525361.70 475197.78,5525367.83 475207.35,5525372.03 475210.05,5525366.34 475200.45,5525361.70"/>
    <poly id="108432033" type="building" color="255,230,230" fill="1" layer="-1.00" shape="475139.06,5525409.78 475147.65,5525410.13 475148.10,5525399.08 475147.34,5525399.05 475139.51,5525398.73 475139.06,5525409.78"/>
    <poly id="108432036" type="building" color="255,230,230" fill="1" layer="-1.00" shape="475232.07,5525360.22 475242.69,5525357.93 475241.35,5525351.69 475230.72,5525353.97 475232.07,5525360.22"/>
    <poly id="108432038" type="building" color="255,230,230" fill="1" layer="-1.00" shape="475124.79,5525404.57 475132.17,5525408.11 475137.21,5525397.61 475129.82,5525394.09 475124.79,5525404.57"/>
    <poly id="108432039" type="building" color="255,230,230" fill="1" layer="-1.00" shape="475200.28,5525328.43 475197.21,5525335.00 475205.13,5525338.68 475208.20,5525332.11 475200.28,5525328.43"/>
    <poly id="108432041" type="building" color="255,230,230" fill="1" layer="-1.00" shape="475232.48,5525366.90 475243.10,5525364.61 475241.75,5525358.37 475231.12,5525360.65 475232.48,5525366.90"/>