<?xml version="1.0" encoding="UTF-8"?>

<!-- generated on 07/29/15 15:39:31 by SUMO duarouter Version 0.21.0
<?xml version="1.0" encoding="UTF-8"?>

<configuration xmlns:xsi="http://www.w3.org/2001/XMLSchema-instance" xsi:noNamespaceSchemaLocation="http://sumo-sim.org/xsd/duarouterConfiguration.xsd">

    <input>
        <net-file value="C:\veinsSimConnectionToUnity\Veins\darmstadt\darmstadt.net.xml"/>
        <trip-files value="E:\Dropbox\DoktorrandKOM\SumoSzenarios\trips.xml"/>
    </input>

    <output>
        <output-file value="E:\Dropbox\DoktorrandKOM\SumoSzenarios\darmstadt.rou.xml"/>
    </output>

</configuration>
-->

<routes xmlns:xsi="http://www.w3.org/2001/XMLSchema-instance" xsi:noNamespaceSchemaLocation="http://sumo-sim.org/xsd/routes_file.xsd">
    <vehicle id="0" depart="10.00">
        <route edges="-4209505#1 -4209505#0 75392300#2 75392300#3 75392300#4 75392300#5 230258732#1 230258732#2 230258732#3 230258732#4 230258732#5 -4180598#3 -4215083 -4215084#1 -4215084#0 -4209451#4 -4209451#3 -4209451#2"/>
    </vehicle>
    <vehicle id="1" depart="10.00">
        <route edges="23382026#4 23382026#0 23382026#1 23382026#2 23382026#3 150032871#0 150032871#1 150032871#2 23623179 23381902#0 23381902#1 23381902#2 23381902#3 150016542#1 150016542#2 4212014 61012583#4 61012583#5 61012583#6 -186498245#1 -140097197#2 -140097197#1 -140097197#0 -140097200 23779994#0 23779994#1 23779994#2 23779994#3 23779994#4 23779994#5 11159807#0 11159807#1 11159807#2 11159807#3 359446336#0 359446336#1 6913022#0 -59802180#4 -59802180#3 -59802180#2 -59802180#1 23575373#6 178610508#0 359446335#9 -359446330#0 -230935523 -229615913 -59802179 -59554813#4 -59554813#3 4211901#1 30822421#1 4211907#1 4211907#2 30822420#3 -59554813#0 -281583605#5 -281583605#4 -281583605#3 -239474282#1 -239474282#0 -239474287#1 150003458#1 260649518 243817344 120267590 185082572#0 185082572#1 185082572#2 177303889#0 177303889#1 177303889#2 179215306#0 179215306#1 179215290#0 179215290#1 179215290#2 179215290#3 179215290#4 179215290#5 179215290#6 179215290#7 179215290#8 179215304#0 -179215304#0"/>
    </vehicle>
    <vehicle id="10" depart="10.00">
        <route edges="-150032814#1 150032814#1 150032814#2 150032814#3 150032814#4 150032814#5 255729744#0 255729744#1 -150032770#2 -150032770#1 -150032770#0 103958941#0 103958941#1 103958941#2 103958941#3 139667150 60972982#0 60972982#1 60972980#0 60972980#1 27284069#0 27284069#1 27284069#2 27284069#3 27284069#4 60969569#1 60969569#2 30747565#0 30747565#1 30747565#2 30747565#3 60858551 60858550 38123825#0 38123825#1 21931836 30089070#0 30089070#1 59802183#0 59802183#1 59802181#0 59802181#1 359446333 249682388#0 249682388#1 249682388#2 249682388#3 249682388#4 140097187#0 140097187#1 140097187#2 140097187#3 -254075878#5 -254075878#4 -254075878#3 -254075878#2 -254075878#1 -254075878#0 -61100087#3 -61100087#2 -61100087#1 -61100087#0 -150016547 61099951#0 61099951#1 61099951#2 61099951#3 61099951#4 61099951#5 61099951#6 61100006#0 274578072 274578078 274578076 274578079#1 -274578079#1"/>
    </vehicle>
    <vehicle id="100" depart="10.00">
        <route edges="24509106#0 27313413 26929911#1 24509128#1+26929911#2 24509128#2 24509128#3 24509128#4 -150032851#2 -150032851#1 -150032851#0 256798907#2 256798907#3 256798907#4 256798907#5 -139668778#6 -139668778#5 -139668778#4 -139668778#3 -139668778#2 -139668778#1 -139668778#0 31720730#0 31720730#1 31720730#2 31720730#3 31720730#4 149706230#0 149706230#1 4223547#3 4223547#4 -4223547#4"/>
    </vehicle>
    <vehicle id="1000" depart="10.00">
        <route edges="47657619#1 -47657619#1 -47657619#0 -47657618 -315633950 -315633952 -149388060#2 -149388060#1 -149388060#0 259186821#1 259186821#2 259186821#3 259186821#4 259186821#5 253749805#0 253749805#1 22938778#0 22938778#1 22938778#2 61117627#0 61117627#1 61117627#2 256663971#0 256663971#1 256663971#2 114874457#0 114874457#1 230340023#0 230340023#1 230340023#2 230340023#3 230340023#4 230340023#5 59553385#0 59553385#1 230340033 281583605#0 281583605#1 281583605#2 281583605#3 281583605#4 281583605#5 59554813#0 59554813#1 59554813#2 59554813#3 59554813#4 59802179 229615913 230935523 359446330#0 359446330#1 59553361#0 33856112#2 -23575373#4 -23575373#3 -23575373#2 -23575373#1 6913022#2 59802164#0 59802164#1 59802164#2 60968085 60967374 60970396#0 60970396#1 60970396#2 47377472#3 47377472#4 47377472#5 47377472#6 47377472#7 47377472#8 38115192 265829574#0 265829574#1 265829574#2 253272007#0 253272007#1 253272007#2 59591195#0 59591195#1 59591195#2 59591195#3 73372559 116556687#0 116556687#1 76090533#0 76090533#1 76090533#2 76090533#3 148061764#0 148061764#1 148061764#2 148061764#3 -148061764#3"/>
    </vehicle>
    <vehicle id="1001" depart="10.00">
        <route edges="189656504#2 -189656504#2 -189656504#1 -189656504#0 4229304 -97151077#3 -97151077#2 -97151077#1 -97151077#0 -178610506 4076561#0 4076561#1 4076561#2 4076561#3 4076561#4 4076561#5 150003450 253549990#0 253549990#1 253549988 253549985 184878650 253549984 253549987 150003449#0 150003449#1 239474287#0 239474287#1 239474282#0 239474282#1 281583605#3 281583605#4 281583605#5 59554813#0 59554813#1 59554813#2 59554813#3 59554813#4 59802179 229615913 230935523 359446330#0 359446330#1 59553361#0 33856112#2 -23575373#4 -23575373#3 -23575373#2 -23575373#1 6913022#2 59802164#0 359446335#2 -30089070#0"/>
    </vehicle>
    <vehicle id="1004" depart="10.00">
        <route edges="256798907#3 256798907#4 256798907#5 150032779#0 150032779#1 150032779#2 255729744#0 255729744#1 -150032770#2 -150032770#1 -150032770#0 103958941#0 103958941#1 103958941#2 103958941#3 139667150 60972982#0 60972982#1 60972980#0 60972980#1 27284069#0 27284069#1 27284069#2 27284069#3 27284069#4 60969569#1 60969569#2 30747565#0 30747565#1 30747565#2 30747565#3 60858551 60858550 38123825#0 38123825#1 21931836 30089070#0 30089070#1 23575373#0 23575373#1 23575373#2 23575373#3 23575373#4 23575373#5 23575373#6 178610508#0 359446335#9 -359446330#0 -230935523 -229615913 -59802179 -59554813#4 -59554813#3 4211901#1 30822421#1 4211907#1 4211907#2 30822420#3 -59554813#0 -281583605#5 -281583605#4 -281583605#3 -239474282#1 -239474282#0 -239474287#1 -239474287#0 -150003449#1 -150003449#0 -253549987 253549986 253549989#0 253549989#1 -150003450 -4076561#5 -4076561#4 -4076561#3 -4076561#2 -4076561#1 -4076561#0 178610506 97151077#0 97151077#1 97151077#2 97151077#3 4229305#0 4229305#1 4229305#2 4229305#3 4229305#4 4233816 -4158793#3 -4158793#2 -4158793#1 -4158793#0 -4158800#9 -4158800#8 -4158800#7 -4158800#6 -4158800#5 -4158800#4 -4158800#3 4189708#0 149701942#2"/>
    </vehicle>
    <vehicle id="1005" depart="10.00">
        <route edges="4144040#2 -4144040#2 -4144040#1 -4144040#0 255729744#0 -150032810#6 -150032810#5 -150032810#4 -150032810#3 -150032810#2 -150032810#1 -150032810#0 4075332#0 4075332#1 4075332#2 4075332#3 4218430#0 4218430#1 27466526#0 27466526#1 27466526#2"/>
    </vehicle>
    <vehicle id="1007" depart="10.00">
        <route edges="33830028#2 150016542#7 150016542#8 -140096358 61012583#0 61012583#1 61012583#2 61012583#3 61012583#4 61012583#5 61012583#6 -186498245#1 -140097197#2 -140097197#1 -140097197#0 -140097200 23779994#0 23779994#1 23779994#2 23779994#3 23779994#4 23779994#5 11159807#0 11159807#1 11159807#2 11159807#3 359446336#0 359446336#1 6913022#0 -59802180#4 -59802180#3 -59802180#2 -59802180#1 23575373#6 178610508#0 359446335#9 -359446330#0 -230935523 -229615913 -59802179 -59554813#4 -59554813#3 4211901#1 30822421#1 4211907#1 4211907#2 30822420#3 -59554813#0 -281583605#5 -281583605#4 -281583605#3 -239474282#1 106804095#3 106804095#4 106804095#5 281583590 230340034 139667143#0 139667143#1 139667143#2 139667143#3 139667143#4 61114591 281583589#0 281583589#1 281583589#2 61114968 30092503#0 30092503#1 30092503#2 179052607#0+281583592 179052607#1 179052607#2 24228752#0 24228752#1 24228752#2 24228752#3 24228752#4 150003445 281583594#0 -179052616#6 -179052616#5 -179052616#4 179052616#4"/>
    </vehicle>
    <vehicle id="1008" depart="10.00">
        <route edges="-26978025#0 26978025#0 26978024#2 26978024#3 26978024#4 26978024#5 61102543#1 61102543#2 61102543#3 61100087#0 61100087#1 253749835#1 253749835#2 253749806#1 253749806#2 254075871#0 254075871#1 178610505#0 178610505#1 178610505#2 26925212#0 26925212#1 26925212#2 26925212#3 23779994#4 23779994#5 11159807#0 11159807#1 11159807#2 11159807#3 359446336#0 359446336#1 6913022#0 6913022#1 6913022#2 59802164#0 59802164#1 59802164#2 60968085 60967374 60970396#0 60970396#1 60970396#2 47377472#3 47377472#4 47377472#5 47377472#6 8135230#3 254075881 4209740#0 4209740#1 44973978 4019053#0 4019053#1 4019053#2 4019053#3 150032770#0 150032770#1 150032770#2 255729743#0 -150032810#7 -150032810#6 -150032810#5 -150032810#4 -150032810#3 -150032810#2 -150032810#1 -150032810#0 4075332#0 4075332#1 -150032798#2 150032798#2"/>
    </vehicle>
    <vehicle id="1009" depart="10.00">
        <route edges="23735176#0 -23735176#0 4076568#4 -4229301#1 -4229301#0 -4076561#5 -4076561#4 -4076561#3 150003462#5 150016616#1 61099979#11 61099979#12 61099979#13 66208927#0 150016650#3 61523367#1 66208932#0 61099993#1 61099993#2 61102543#0 61102543#1 61102543#2 61102543#3 61100087#0 61100087#1 253749835#1 253749835#2 253749806#1 253749806#2 254075871#0 254075871#1 178610505#0 178610505#1 178610505#2 26925212#0 26925212#1 26925212#2 26925212#3 -23779994#3 -23779994#2 -23779994#1 -23779994#0 140097200 140097197#0 140097197#1 140097197#2 140097197#3 140097197#4 150016542#0 150016542#1 150016542#2 150016542#3 150016542#4 150016542#5 218285417#0 218285417#1 218285417#2 218285417#3 47806720 26167620#1 26167620#2 43475285 4218430#10 4218431#0"/>
    </vehicle>
    <vehicle id="101" depart="10.00">
        <route edges="176086847#1 176086847#2 150032798#0 150032798#1 150032798#2 -4075332#1 -4075332#0 150032810#0 150032810#1 150032810#2 150032810#3 150032810#4 150032810#5 150032810#6 150032810#7 255729743#1 255729750#0 255729750#1 255729750#2 255729750#3 51873805#0 51873805#1 51873805#2 51873805#3 51873805#4 60263960 116556688#0 116556688#1 43135644#0 43135644#1 33546516#0 33546516#1 116556689#6 116556689#7"/>
    </vehicle>
    <vehicle id="1010" depart="10.00">
        <route edges="-23875308#0 180850795 150016556#0 150016556#1 150016556#2 150016556#3 4211907#0 4211907#1 59554813#2 59554813#3 59554813#4 59802179 229615913 230935523 359446330#0 359446330#1 59553361#0 33856112#2 -23575373#4 -23575373#3 -23575373#2 -23575373#1 6913022#2 59802164#0 59802164#1 59802164#2 60968085 60967374 60970396#0 60970396#1 60970396#2 47377472#3 47377472#4 47377472#5 47377472#6 8135230#3 254075881 4209740#0 4209740#1 44973978 4019053#0 4019053#1 4019053#2 4019053#3 150032770#0 150032770#1 150032770#2 255729743#0 -150032810#7 -150032810#6 -150032810#5 -150032810#4 -150032810#3 -150032810#2 -150032810#1 -150032810#0 4075332#0 4075332#1 4075332#2 4075332#3 4218430#0 4218430#1 4218430#2 26168610 26166506 105704918 105704961 -28230199#1 -28230199#0"/>
    </vehicle>
    <vehicle id="1011" depart="10.00">
        <route edges="-110308399#1 -110308399#0 256798907#1 256798907#2 256798907#3 256798907#4 256798907#5 150032779#0 150032779#1 150032779#2 255729744#0 255729744#1 -150032770#2 -150032770#1 -150032770#0 103958941#0 103958941#1 103958941#2 103958941#3 139667150 60972982#0 60972982#1 60972980#0 60972980#1 27284069#0 27284069#1 27284069#2 27284069#3 27284069#4 60969569#1 60969569#2 30747565#0 30747565#1 30747565#2 30747565#3 60858551 60858550 38123825#0 38123825#1 21931836 30089070#0 30089070#1 59802183#0 59802183#1 59802181#0 59802181#1 359446333 249682388#0 249682388#1 249682388#2 249682388#3 249682388#4 140097187#0 140097187#1 140097187#2 140097187#3 140097189#0 140097189#1 140097189#2 140097189#3 -66846954#1"/>
    </vehicle>
    <vehicle id="1012" depart="10.00">
        <route edges="139668778#2 139668778#3 139668778#4 139668778#5 139668778#6 139668778#7 51873805#0 51873805#1 51873805#2 51873805#3 51873805#4 60263960 116556688#0 116556688#1 43135644#0 43135644#1 149518817 214846347 214812788#0"/>
    </vehicle>
    <vehicle id="1013" depart="10.00">
        <route edges="254641315#0 254641315#1 254379003#1 254379003#2 254379003#3 148749645#0 230935522 230935523 359446330#0 359446330#1 59553361#0 33856112#2 -23575373#4 -23575373#3 -23575373#2 -23575373#1 6913022#2 59802164#0 59802164#1 59802164#2 60968085 60967374 60970396#0 60970396#1 60970396#2 47377472#3 47377472#4 47377472#5 47377472#6 47377472#7 47377472#8 38115192 265829574#0 265829574#1 265829574#2 253272007#0 253272007#1 253272007#2 73372564 53207952#0 53207952#1 116556689#2 116556689#3 116556689#4 116556689#5 33546516#2 -4144040#10 -4144040#9 -4144040#8"/>
    </vehicle>
    <vehicle id="1015" depart="10.00">
        <route edges="43135644#0 43135644#1 149518817 214846345#0 214846345#1 214846345#2 253272005#0 253272005#1 265829573#1 75392303#1 75392303#2 75392303#3 4209741#0 4209741#1 4209741#2 44973978 4019053#0 4019053#1 4019053#2 149518804#2 149518804#3 26730977#0 26730977#1 26730977#2 33916276#12 33916276#13 33916276#14"/>
    </vehicle>
    <vehicle id="1016" depart="10.00">
        <route edges="256102746#1 256102750#1 256102750#2 256105105#6 256105105#7 56028463#1 257510651#8 256102751#0 256102751#1 256102751#2 253230761#0 8135230#2 47377472#7 47377472#8 38115192 265829574#0 265829574#1 265829574#2 253272007#0 253272007#1 253272007#2 59591195#0 59591195#1 59591195#2 59591195#3"/>
    </vehicle>
    <vehicle id="1018" depart="10.00">
        <route edges="255729750#3 -139668778#7 150032779#0 150032779#1 150032779#2 255729744#0 255729744#1 -150032770#2 -150032770#1 -150032770#0 103958941#0 103958941#1 103958941#2 103958941#3 139667150 60972982#0 60972982#1 60972980#0 60972980#1 27284069#0 27284069#1 27284069#2 27284069#3 27284069#4 60969569#1 60969569#2 30747565#0 30747565#1 30747565#2 30747565#3 60858551 60858550 38123825#0 38123825#1 21931836 30089070#0 30089070#1 59802183#0 59802183#1 59802181#0 59802181#1 359446333 249682388#0 249682388#1 249682388#2 249682388#3 249682388#4 140097187#0 140097187#1 140097187#2 140097187#3 -254075878#5 -254075878#4 -254075878#3 -254075878#2 -254075878#1 -254075878#0 -61100087#3 -61100087#2 253749835#1 253749835#2"/>
    </vehicle>
    <vehicle id="1019" depart="10.00">
        <route edges="4158793#13 4158793#14 4158793#15 4158793#16 4158793#17 4158793#18 4158793#19 4158793#20 66208938#5 66208938#6 66208938#7 150016558#0 150016558#1 61104542 66208925#0 66208925#1 66208925#2 66208927#0 66208927#1 61104543#0 61104543#1 150016553 30822579 180850795 150016556#0 150016556#1 150016556#2 150016556#3 4211907#0 4211907#1 59554813#2 59554813#3 59554813#4 59802179 229615913 230935523 359446330#0 359446330#1 59553361#0 33856112#2 -23575373#4 -23575373#3 -23575373#2 -23575373#1 6913022#2 59802164#0 59802164#1 59802164#2 60968085 60967374 60970396#0 60970396#1 60970396#2 60970396#3 60970396#4 60798728#0 60798728#1 148749649#5 148749649#6 4209738#0 4209738#1 175517240#0 175517240#1 175517240#2 175517240#3 286646454#4 286646454#0 286646451#3 22938316#13+286646446#4 22938316#14+286646446#5 286646446#6 286646441#5+286646446#7 286646441#6+286646446#8 286646446#0 286646446#1 4212005 4212004#0 4212004#1 34832436#1"/>
    </vehicle>
    <vehicle id="1022" depart="10.00">
        <route edges="70206213#7 70206213#8 70206213#9 331815086#3 26538743#5 175790950#0 175790950#1 -150008696#2 -150008696#1 -150008696#0 4158793#0 4158793#1 4158793#2 4158793#3 -4233816 -4229305#4 -4229305#3 -4229305#2 -4229305#1 -4229305#0 -97151077#3 -97151077#2 -97151077#1 -97151077#0 -178610506 4076561#0 4076561#1 4076561#2 4076561#3 4076561#4 4076561#5 150003450 253549990#0 253549990#1 253549988 253549985 184878650 253549984 253549987 150003449#0 150003449#1 239474287#0 239474287#1 239474282#0 239474282#1 281583605#3 281583605#4 281583605#5 59554813#0 59554813#1 59554813#2 59554813#3 59554813#4 59802179 229615913 230935523 359446330#0 359446330#1 59553361#0 33856112#2 -23575373#4 359446339#1 59553361#2 59553361#3 22937760#4 22937760#5 22937760#6 359446331#0 359446331#1 359446331#2 359446331#3 286023512#8+286129074#1 286023512#9 6912962#1 6912962#2 286129056#5+6912962#3 286129056#6+6912962#4 286129056#7+6912962#5 286129056#8+6912962#6 286129056#9 286129056#10 286129056#11 286129056#12 286129056#13 148749653#1"/>
    </vehicle>
    <vehicle id="1024" depart="10.00">
        <route edges="150016565#0 -150016565#0 -79723997#4 -79723997#3 -79723997#2 -79723997#1 -79723997#0 -4158373 -4158793#20 -4158793#19 -4158793#18 -4158793#17 -4158793#16 -4158793#15 -4158793#14 -4158793#13 -4158793#12 -4158793#11 -4158793#10 -4158793#9 -4158793#8 -4158793#7 -4158793#6 -4158793#5 -4158793#4 -4158793#3 -4158793#2 -4158793#1 -4158793#0 150008696#0 150008696#1 150008696#2 150008696#3 150008696#4 150008696#5 150008696#6 259180112 255476869#0 255476869#1 255476869#2 207986471 259180747#0 259180747#1 259180747#2 259180747#3 61108064#0 61108064#1 259181232 259188440#0 259188440#1 259188440#2"/>
    </vehicle>
    <vehicle id="1025" depart="10.00">
        <route edges="66208925#2 66208927#0 150016650#3 61523367#1 66208932#0 66208932#1 229614465 253669277 61102531#0 61102531#1 61102531#2 61102531#3 61102531#4 61102531#5 97151077#0 -97151077#0 -178610506 4076561#0 4076561#1 4076561#2 4076561#3 4076561#4 4076561#5 150003450 253549990#0 253549990#1 253549988 253549985 184878650 253549984 253549987 150003449#0 150003449#1 28702932#0 28702932#1 120267590 185082572#0 185082572#1 185082572#2 177303889#0 177303889#1 177303889#2 177303889#3 177303889#4 177303889#5 71825138#1 71825138#2 71825138#3 71825138#4 71825138#5 185082569#1 185082569#2 185082569#3 185082569#4 185082569#5 296040719#0 296040719#1 49019250#0 54562706#0 -54562706#0"/>
    </vehicle>
    <vehicle id="1027" depart="10.00">
        <route edges="-178457759#1 -178457759#0 186513419#1 186513419#2 180850798#0 106804099#1 106804099#2 59802179 229615913 230935523 359446330#0 359446330#1 59553361#0 33856112#2 -23575373#4 359446339#1 59553361#2 59553361#3 22937760#4 22937760#5 22937760#6 359446331#0 359446331#1 359446331#2 359446331#3 286023512#8+286129074#1 286129074#2 286129074#3+286129075#5 286129074#4+286129075#6 286129074#5+286129075#7 286129074#6"/>
    </vehicle>
    <vehicle id="1028" depart="10.00">
        <route edges="148701588#1 148701588#2 148701606#0 148701606#1 23732540#0 23732540#1 -239476214#2 239476214#2 -120267579#1 -120267579#0 184874847#0 184874847#1 148701582#0 -148701582#0"/>
    </vehicle>
    <vehicle id="1029" depart="10.00">
        <route edges="3987258#1 4215321 -4215320#1 -4215320#0 -4218531 -47698384#1 -47698384#0 -4218432#4 -4218432#3 -4218432#2 -4218432#1 -4218432#0 -140096358 61012583#0 61012583#1 61012583#2 61012583#3 61012583#4 61012583#5 61012583#6 -186498245#1 -140097197#2 -140097197#1 -140097197#0 -140097200 23779994#0 -179545402#1 60799094#5 247597207#0 247597207#1 61097550#0 61097550#1 61097550#2 61097550#3 61097550#4 61097550#5 61099951#0 61099951#1 61099951#2 61099951#3 61099951#4 61099951#5 61099951#6 61100006#0 61100006#1 61100006#2 61100006#3 253669277 61102531#0 61102531#1 61102531#2 61102531#3 61102531#4 61102531#5 97151077#0 97151077#1 97151077#2 97151077#3 4229305#0 102195597#0 -102195597#0"/>
    </vehicle>
    <vehicle id="1030" depart="10.00">
        <route edges="-4085583#0 4085583#0 4085583#1 4085583#2 4085583#3 -4075332#4 -4075332#3 -4075332#2 -4075332#1 -4075332#0 150032810#0 150032810#1 150032810#2 150032810#3 150032810#4 150032810#5 150032810#6 255729744#1 -150032770#2 -150032770#1 -150032770#0 103958941#0 103958941#1 103958941#2 103958941#3 139667150 60972982#0 60972982#1 60972980#0 60972980#1 27284069#0 27284069#1 27284069#2 27284069#3 27284069#4 60969569#1 60969569#2 30747565#0 30747565#1 30747565#2 30747565#3 60858551 60858550 38123825#0 38123825#1 21931836 30089070#0 30089070#1 23575373#0 23575373#1 23575373#2 23575373#3 23575373#4 23575373#5 23575373#6 178610508#0 359446335#9 -359446330#0 -230935523 -229615913 -59802179 -59554813#4 -59554813#3 4211901#1 30822421#1 4211907#1 4211907#2 30822420#3 -59554813#0 -281583605#5 -281583605#4 -281583605#3 -239474282#1 106804095#3 106804095#4 106804095#5 281583590 230340034 139667143#0 139667143#1 139667143#2 139667143#3 139667148 281583603#0 281583603#1 114874456#0 114874456#1 114874456#2 281583604#0 281583604#1 150003448#0 150003448#1 150003448#2 -150003448#2"/>
    </vehicle>
    <vehicle id="1032" depart="10.00">
        <route edges="-4218432#0 4218432#0 4218432#1 4218432#2 4218432#3 4218432#4 -4218431#1 -4218431#0 -4218430#10 -4218430#9 -4218430#8 -4218430#7 -4218430#6 -4218430#5 -4218430#4 -4218430#3 -4218430#2 -4218430#1 -4218430#0 4075332#4 -4085583#3"/>
    </vehicle>
    <vehicle id="1033" depart="10.00">
        <route edges="140097198#2 23779994#0 23779994#1 23779994#2 23779994#3 23779994#4 23779994#5 11159807#0 11159807#1 11159807#2 11159807#3 359446336#0 359446336#1 6913022#0 -59802180#4 -59802180#3 -59802180#2 -59802180#1 23575373#6 178610508#0 359446335#9 -359446330#0 -230935523 -229615913 -59802179 -59554813#4 -59554813#3 4211901#1 4211901#2 3987270 30822578#0 30822578#1 47085444#0 -176086846#2 -176086846#1 -176086846#0"/>
    </vehicle>
    <vehicle id="1034" depart="10.00">
        <route edges="4209641#3 4209641#4 27603915 61750317#0 61750317#1 61750317#2 23599703#0 150041595#3 150041595#4 150041595#5 150041595#6 214812786 116556690#0 116556690#1 116556690#2 116556690#3 214812787 214846346 214846345#0 214846345#1 214846345#2 253272005#0 253272005#1 265829573#1 75392303#1 75392303#2 75392303#3 253272008#0 253272008#1 253272008#2 253272008#3 253272011#0 30747565#1 30747565#2 30747565#3 60858551 60858550 38123825#0 38123825#1 21931836 30089070#0 30089070#1 23575373#0 23575373#1 23575373#2 23575373#3 23575373#4 23575373#5 23575373#6 178610508#0 359446335#9 -359446330#0 -230935523 -229615913 -59802179 -59554813#4 -59554813#3 4211901#1 30822421#1 4211907#1 4211907#2 30822420#3 -59554813#0 -281583605#5 -281583605#4 -281583605#3 239474282#2 120267579#0 120267579#1 -239476214#2 -239476214#1 -4212142#3 -4212142#2 148701588#4"/>
    </vehicle>
    <vehicle id="1035" depart="10.00">
        <route edges="286646451#7 286646451#8 286646451#9 286646451#10+6912962#7 286646451#11+6912962#8 286646451#12+6912962#9 6912962#10 148749649#1 148749649#2 148749649#3 148749649#4 148749649#5 60970395#3 60970395#4 60969569#0 60969569#1 60969569#2 30747565#0 30747565#1 30747565#2 30747565#3 60858551 60858550 38123825#0 38123825#1 21931836 30089070#0 30089070#1 23575373#0 23575373#1 23575373#2 23575373#3 23575373#4 23575373#5 23575373#6 178610508#0 359446335#9 -359446330#0 -230935523 -229615913 -59802179 -59554813#4 -59554813#3 4211901#1 30822421#1 4211907#1 4211907#2 148749643#0 148749643#1 148749643#2 116111898#0 59704563#1 59704563#2 59704563#3 59704563#4 59704563#5 180850798#0 106804099#1"/>
    </vehicle>
    <vehicle id="1037" depart="10.00">
        <route edges="256743308#1 256743308#2 281583586#0 4189920#1 230340023#3 230340023#4 230340023#5 59553385#0 59553385#1 230340033 281583605#0 281583605#1 281583605#2 281583605#3 281583605#4 281583605#5 59554813#0 59554813#1 59554813#2 59554813#3 59554813#4 59802179 229615913 230935523 359446330#0 359446330#1 59553361#0 33856112#2 -23575373#4 -23575373#3 -23575373#2 -23575373#1 6913022#2 59802164#0 59802164#1 59802164#2 60968085 60967374 60970396#0 60970396#1 60970396#2 47377472#3 47377472#4 47377472#5 47377472#6 47377472#7 47377472#8 38115192 -23248109#2 23248109#2 265829573#0 -253272005#1 6913007#1 75392301#0 75392301#1 75392301#2 75392301#3 4195610#0"/>
    </vehicle>
    <vehicle id="1039" depart="10.00">
        <route edges="255736148#1 73372565#0 73372565#1 73372565#2 44973978 4019053#0 4019053#1 4019053#2 149518804#2 150032866#0 150032866#1 35574708#2 139667150 60972982#0 60972982#1 60972980#0 60972980#1 27284069#0 27284069#1 27284069#2 27284069#3 27284069#4 60969569#1 60969569#2 30747565#0 30747565#1 30747565#2 30747565#3 60858551 60858550 38123825#0 38123825#1 21931836 30089070#0 30089070#1 23575373#0 23575373#1 23575373#2 23575373#3 23575373#4 23575373#5 23575373#6 178610508#0 359446335#9 -359446330#0 -230935523 -229615913 -59802179 -59554813#4 -59554813#3 4211901#1 30822421#1 4211907#1 4211907#2 30822420#3 -59554813#0 -281583605#5 -281583605#4 -281583605#3 -239474282#1 106804095#3 106804095#4 106804095#5 281583590 230340034 139667143#0 139667143#1 139667143#2 139667143#3 139667143#4 61114591 281583589#0 281583589#1 281583589#2 61114968 30092503#0 30092503#1 30092503#2 179052607#0+281583592 179052607#1 179052607#2 24228752#0 24228752#1 24228752#2 24228752#3 24228752#4 24228752#5 24228752#6 24228752#7"/>
    </vehicle>
    <vehicle id="104" depart="10.00">
        <route edges="149548873#1 178730305 61114593#1 178730304#0 178730304#1 149548873#8 149548873#9 253522102#0 253522102#1 53764349#2 4208830#0 4208830#1 4208830#2 4208830#3 259212742#0 259212742#1 259212742#2 259212742#3 259212742#4 259212742#5 259212742#6 259212742#7 253549978 253549981#0 253549981#1 253549984 253549987 150003449#0 150003449#1 239474287#0 239474287#1 239474282#0 239474282#1 281583605#3 281583605#4 281583605#5 59554813#0 59554813#1 59554813#2 59554813#3 59554813#4 59802179 229615913 230935523 359446330#0 359446330#1 59802180#0 59802180#1 59802180#2 359446337#1 359446337#2 359446335#7"/>
    </vehicle>
    <vehicle id="1040" depart="10.00">
        <route edges="4223539#1 140186753#3 140186753#4 140186753#5 140186753#6 140186753#7 26727950 139668778#0 139668778#1 139668778#2 139668778#3 139668778#4 139668778#5 139668778#6 139668778#7 51873805#0 51873805#1 51873805#2 51873805#3 51873805#4 60263960 116556688#0 116556688#1 43135644#0 43135644#1 149518817 214846345#0 214846345#1 214846345#2 253272005#0 253272005#1 265829573#1 75392303#1 75392303#2 75392303#3 4209741#0 4209741#1"/>
    </vehicle>
    <vehicle id="1041" depart="10.00">
        <route edges="40110837#4 -40110837#4 -40110837#3 -40110837#2 -40110837#1 -40110837#0 4158793#13 4158793#14 4158793#15 4158793#16 4158793#17 4158793#18 4158793#19 4158793#20 66208938#5 66208938#6 66208938#7 150016558#0 150016558#1 61104542 66208925#0 66208925#1 66208925#2 66208927#0 66208927#1 61104543#0 61104543#1 150016553 30822579 180850795 150016556#0 150016556#1 150016556#2 150016556#3 4211907#0 4211907#1 59554813#2 59554813#3 59554813#4 59802179 229615913 230935523 359446330#0 359446330#1 59553361#0 33856112#2 -23575373#4 -23575373#3 -23575373#2 -23575373#1 6913022#2 59802164#0 59802164#1 59802164#2 60968085 60967374 60970396#0 60970396#1 60970396#2 47377472#3 47377472#4 47377472#5 47377472#6 8135230#3 254075881 4209740#0 4209740#1 44973978 4019053#0 4019053#1 4019053#2 4019053#3 150032770#0 150032770#1 150032770#2 255729743#0 -150032810#7 -150032810#6 -150032810#5 -150032810#4 -150032810#3 -150032810#2 150032810#2"/>
    </vehicle>
    <vehicle id="1043" depart="10.00">
        <route edges="140186753#0 140186753#1 140186753#2 140186753#3 140186753#4 140186753#5 140186753#6 140186753#7 26727950 139668778#0 139668778#1 139668778#2 139668778#3 139668778#4 139668778#5 139668778#6 150032779#0 150032779#1 150032779#2 255729744#0 255729744#1 -150032770#2 -150032770#1 -150032770#0 103958941#0 103958941#1 103958941#2 103958941#3 139667150 60972982#0 60972982#1 60972980#0 60972980#1 27284069#0 27284069#1 27284069#2 27284069#3 27284069#4 60969569#1 60969569#2 30747565#0 30747565#1 30747565#2 30747565#3 60858551 60858550 38123825#0 38123825#1 21931836 30089070#0 30089070#1 23575373#0 23575373#1 23575373#2 23575373#3 23575373#4 23575373#5 23575373#6 178610508#0 359446335#9 -359446330#0 -230935523 -229615913 -59802179 -59554813#4 -59554813#3 4211901#1 30822421#1 4211907#1 4211907#2 30822420#3 -59554813#0 -281583605#5 -281583605#4 -281583605#3 -239474282#1 -239474282#0 -239474287#1 -239474287#0 -150003449#1 154747664#0 154747664#1 -154747664#1"/>
    </vehicle>
    <vehicle id="1044" depart="10.00">
        <route edges="-26977403#0 254075887 255874475#0 255874475#1 255874475#2 255874475#3 255874475#4 140097187#0 140097187#1 140097187#2 140097187#3 140097189#0 140097189#1 140097189#2 140097189#3 140097189#4 4208553#0 4208553#1 4208553#2 4208553#3 4208553#4 4208553#5 4208553#6 4208553#7 182880764#1 182880764#2 150016589#0 150016589#1 149518812#0 149518812#1 59704566#1 59704566#2 150016556#2 150016556#3 4211907#0 4211907#1 4211907#2 30822420#3 -59554813#0 -281583605#5 -281583605#4 -281583605#3 -239474282#1 106804095#3 106804095#4 106804095#5 281583590 230340034 139667143#0 139667143#1 139667143#2 139667143#3 139667148 281583603#0 281583603#1 114874456#0 148701610#4 -43200256#3 -43200256#2 -43200256#1 -43200256#0"/>
    </vehicle>
    <vehicle id="1045" depart="10.00">
        <route edges="4218430#5 4218430#6 4218430#7 4218430#8 4218430#9 4218430#10 4218431#0 4218431#1 -4218432#4 -4218432#3 -4218432#2 -4218432#1 -4218432#0 -140096358 61012583#0 61012583#1 61012583#2 61012583#3 61012583#4 61012583#5 61012583#6 -186498245#1 -140097197#2 -140097197#1 -140097197#0 -140097200 23779994#0 23779994#1 23779994#2 23779994#3 23779994#4 23779994#5 11159807#0 11159807#1 11159807#2 11159807#3 359446336#0 359446336#1 6913022#0 -59802180#4 -59802180#3 -59802180#2 -59802180#1 23575373#6 178610508#0 359446335#9 -359446330#0 -230935523 -229615913 -59802179 -59554813#4 -59554813#3 4211901#1 30822421#1 4211907#1 4211907#2 30822420#3 -59554813#0 -281583605#5 -281583605#4 -281583605#3 -239474282#1 106804095#3 106804095#4 106804095#5 281583590 230340034 139667143#0 139667143#1 139667143#2 4189921#5 4189918#0 4189918#1 150003457#1 150003457#2 149548873#1 149548873#2 149548873#3 149548873#4 178730298#0"/>
    </vehicle>
    <vehicle id="1046" depart="10.00">
        <route edges="-149518799#1 149518799#1 149518799#2 75392303#2 75392303#3 253272008#0 253272008#1 253272008#2 253272008#3 253272011#0 30747565#1 30747565#2 30747565#3 60858551 60858550 38123825#0 38123825#1 21931836 30089070#0 30089070#1 23575373#0 6913022#2 59802164#0 59802164#1 59802164#2 60968085 60967373 47377472#0"/>
    </vehicle>