<?xml version="1.0" encoding="UTF-8"?>

<!-- generated on 07/30/15 11:49:52 by SUMO duarouter Version 0.21.0
<?xml version="1.0" encoding="UTF-8"?>

<configuration xmlns:xsi="http://www.w3.org/2001/XMLSchema-instance" xsi:noNamespaceSchemaLocation="http://sumo-sim.org/xsd/duarouterConfiguration.xsd">

    <input>
        <net-file value="C:\veinsSimConnectionToUnity\Veins\darmstadt\ruesseslsheimopel.net.xml"/>
        <trip-files value="E:\Dropbox\DoktorrandKOM\HiwiUnityProjektVeins\SumoSzenarios\trips.xml"/>
    </input>

    <output>
        <output-file value="C:\veinsSimConnectionToUnity\Veins\darmstadt\ruesseslsheimopel.rou.xml"/>
    </output>

</configuration>
-->

<routes xmlns:xsi="http://www.w3.org/2001/XMLSchema-instance" xsi:noNamespaceSchemaLocation="http://sumo-sim.org/xsd/routes_file.xsd">
    <vehicle id="0" depart="10.00">
        <route edges="106115114#0 106115114#1 154524975#1 -23214060#13 -175572092 34412971#15 306294386#0 306294386#1 306294386#2 155208177 153334164#3 153334164#4 153334164#5 153334164#6 153334164#7 59486354#0 59486354#1 -34756498#5 -34756498#4 -34756498#3 -34756498#2 -34756498#1 40600397#0 40600397#1 23216585#5 23216585#6 23216585#7 40528320#5 146415828#0"/>
    </vehicle>
    <vehicle id="1" depart="10.00">
        <route edges="26563857#0 203463142#4 106115120#0 85265159 -144782194#15 -144782194#14 -144782194#13 -144782194#12 -144782194#11 -144782194#10 -144782194#9 -144782194#8 -144782194#7 -144782194#6 -144782194#5 -144782194#4 -144782194#3 -144782194#2 -144782194#1 -144782194#0 144782210#3 106115120#5 106115120#6 106115134#0 106115134#1 137266208#0 137266208#1 137266208#2 156869783#1 59486354#0 59486354#1 59486354#2 59486354#3 259020595 259020593 259020592 259020596#0 259020596#1 259020594 137266212#0 137266212#1 137266212#2 259785273#0"/>
    </vehicle>
    <vehicle id="10" depart="10.00">
        <route edges="144783546#56 144783546#57 144783546#58 144783546#59 144783546#60 144783546#61 144783546#62 144783546#63 144783510 -106115120#1 -106115120#0 23329196#0 23329196#1 106888872 -106880246 26563911#0 26563911#1 26563911#2 26563911#3 106893316#0 106893316#1 217196259 218146055 218146093 310724506#0 310724507 218146221#0 217360634#0 217360634#1 217360634#2 217360636#2 227694829 227694846 247732837 263610996 263611007#0"/>
    </vehicle>
    <vehicle id="100" depart="10.00">
        <route edges="258868163#0 20814895#2 258868154#2 -258877676 -258877679#2 -258877679#1 -258877679#0 -346178431#3 -346178431#2 -346178431#1 -346178431#0 -23292885 32888407#5 32888407#6 -32888407#6"/>
    </vehicle>
    <vehicle id="1000" depart="10.00">
        <route edges="-106115120#4 -144783529 144783546#57 144783546#58 144783546#59 144783546#60 144783546#61 144783546#62 144783546#63 144783510 -106115120#1 -106115120#0 23329196#0 23329196#1 106888872 -106880246 26563911#0 26563911#1 26563911#2 26563911#3 106893316#0 106893316#1 217196259 218146055 218146093 310724506#0 310724506#1 262670194#0 262670194#1 262670196 262670193 262670197#0 262670197#1 262670198#0 262670198#1 -262670199#1 -262670199#0 262670199#0"/>
    </vehicle>
    <vehicle id="1001" depart="10.00">
        <route edges="259041396#1 137266213#0 137266213#1 137266213#2 137266213#3 37937914#0 37937914#1 37937914#2 4396828#0 4396828#1 4396828#2 4396828#3 -106115120#6 -106115120#5 -144782210#3 144782194#0 144782194#1 144782194#2 144782194#3 144782194#4 144782194#5 144782194#6 144782194#7 144782194#8 144782194#9 144782194#10 144782194#11 144782194#12 144782194#13 144782194#14 144782194#15 -85265159 106115120#1"/>
    </vehicle>
    <vehicle id="1002" depart="10.00">
        <route edges="258868172#1 258868168#0 258868168#1 258868159 258868171#0 -23564424#0 -258849030 6197889 258868153#0 258868153#1 55988350#0 55988350#1 55988350#2 258915335#2 258859704 258859707#0 258859707#1 258859707#2 -259045789 -259041401 -137266215 -259785276 -137266217#2 -137266217#1 -137266217#0 -8033597 137266213#0 137266213#1 137266213#2 137266213#3 37937914#0 37937914#1 37937914#2 4396828#0 4396828#1 4396828#2 4396828#3 -106115120#6 -144783514 -144783544 144783546#26 144783546#27 144783546#28 144783546#29"/>
    </vehicle>
    <vehicle id="1004" depart="10.00">
        <route edges="40600397#1 -40600397#1 -40600397#0 34756498#1 34756498#2 34756498#3 34756498#4 34756498#5 59486354#2 59486354#3 259020595 259020593 259020592 58963740#0 58963740#1 58963740#2 -137266216#2 137266216#2 8033597 137266217#0 137266217#1 137266217#2 259785276 137266215 259041401 259045789 258859708#0 258859708#1 258859708#2 258859708#3 258859705 258859706#0 258859706#1 258859706#2 258859709 334998334#0 334998334#1 334998334#2 334998334#3 334998334#4 346178425#0 346178425#1 346178425#2 258844203#0 258844203#1 -32888407#8 -32888407#7 -32888407#6"/>
    </vehicle>
    <vehicle id="1005" depart="10.00">
        <route edges="259041396#1 137266213#0 137266213#1 137266213#2 137266213#3 37937914#0 37937914#1 37937914#2 4396828#0 4396828#1 4396828#2 4396828#3 -106115120#6 -144783514 144783546#47 144783546#48 144783546#49 144783546#50 144783546#51 -144783528 -144783546#20 -144783546#19"/>
    </vehicle>
    <vehicle id="1006" depart="10.00">
        <route edges="-24664970#2 -24664970#1 -24664970#0 170984889#2 170984889#3 170984889#4 170984889#5 259041398#1 137266216#0 137266216#1 137266216#2 8033597 137266217#0 137266217#1 137266217#2 259785276 137266215 259041401 259045789 258859708#0 258859708#1 258859708#2 258859708#3 258859703#0 258859703#1 259045788 258849030 258868157#0 258868157#1 258868157#2 258868157#3 258876040 258877675 258877677 258877678#0 258877678#1 258877678#2 10797638#0 10797638#1 10797638#2 10797638#3 258877680#0 258877680#1 -274224059#3 -274224059#2 -274224059#1 -274224059#0 -34819572#1 -34819572#0 34819572#0"/>
    </vehicle>
    <vehicle id="1007" depart="10.00">
        <route edges="40600397#1 -40600397#1 -40600397#0 34756498#1 34756498#2 34756498#3 34756498#4 137266213#3 37937914#0 37937914#1 37937914#2 156869785#0 26563911#0 26563911#1 26563911#2 26563911#3 106893316#0 106893316#1 217196259 218146055 218146093 310724506#0 310724507 218146221#0 217360634#0 217360634#1 217360634#2 217360636#2 227694829 227694846 247732837 263610996 263611007#0"/>
    </vehicle>
    <vehicle id="1009" depart="10.00">
        <route edges="-23214060#13 -175572092 34412971#15 306294386#0 306294386#1 306294386#2 155208177 -34781309#5 -34781309#4 -34781309#3 -34781309#2 -34781309#1 -34781309#0 34781325#0 34781325#1 34781325#2 -274224065#1 -274224065#0 -274224057#4 -274224057#3 -274224057#2 -274224057#1 -274224057#0 -274224059#3 -274224059#2 -274224059#1 -274224059#0 -34819572#1 -34819572#0 34819572#0"/>
    </vehicle>
    <vehicle id="1010" depart="10.00">
        <route edges="106115114#0 106115114#1 154524975#1 -23214060#13 -175572092 34412971#15 306294386#0 306294386#1 306294386#2 155208177 153334164#3 153334164#4 153334164#5 153334164#6 153334164#7 59486354#0 59486354#1 59486354#2 59486354#3 259020595 259020593 259020592 259020596#0 259020596#1 259020594 137266212#0 137266212#1 137266212#2 259785273#0 144731511#1 144731511#0 -98499671#1 -98499671#0"/>
    </vehicle>
    <vehicle id="1011" depart="10.00">
        <route edges="144783546#56 144783546#57 144783546#58 144783546#59 144783546#60 144783546#61 144783546#62 144783546#63 144783510 -106115120#1 106115120#1"/>
    </vehicle>
    <vehicle id="1012" depart="10.00">
        <route edges="144783546#59 144783546#60 144783546#61 144783546#62 144783546#63 144783510 -106115120#1 -106115120#0 23329196#0 23329196#1 106888872 -106880246 26563911#0 26563911#1 26563911#2 26563911#3 106893316#0 106893316#1 217196259 218146055 218146093 310724506#0 310724506#1 262670194#0 262670194#1 262670196 262670193 262670197#0 262670197#1 262670198#0 262670198#1 -262670199#1 -262670199#0 262670199#0"/>
    </vehicle>
    <vehicle id="1013" depart="10.00">
        <route edges="-106115120#4 -144783529 -144783546#56 -144783546#55 -144783546#54 -144783546#53 -144783546#52 -144783546#51 -144783546#50 -144783546#49 -144783546#48 -144783546#47 144783514 106115120#6 106115134#0 106115134#1 137266208#0 137266208#1 137266208#2 156869783#1 59486354#0 59486354#1 59486354#2 59486354#3 259020595 259020593 259020592 58963740#0 58963740#1 58963740#2 -137266216#2 137266216#2 8033597 137266217#0 137266217#1 137266217#2 259785276 137266215 259041401 259045789 258859708#0 258859708#1 258859708#2 258859708#3 258859705 258859706#0 258859706#1 258859706#2 258859709 334998334#0 334998334#1 334998334#2 334998334#3 334998334#4 346178425#0 346178425#1 346178425#2 258844203#0 258844203#1 -32888407#8 -32888407#7 -32888407#6"/>
    </vehicle>
    <vehicle id="1015" depart="10.00">
        <route edges="40600397#1 -40600397#1 -40600397#0 34756498#1 34756498#2 34756498#3 34756498#4 137266213#3 37937914#0 37937914#1 37937914#2 4396828#0 4396828#1 4396828#2 4396828#3 -106115120#6 -106115120#5 -144782210#3 144782194#0 144782194#1 144782194#2 144782194#3 144782194#4 144782194#5 144782194#6 144782194#7 144782194#8 144782194#9 144782194#10 144782194#11 144782194#12 144782194#13 144782194#14 144782194#15 -144782194#15"/>
    </vehicle>
    <vehicle id="1017" depart="10.00">
        <route edges="258868163#0 20814895#2 258868154#2 -258877676 -258877679#2 -258877679#1 -258877679#0 -258877678#2 -258877678#1 -258877678#0 -258877677 -258877675 -258876040 -258868157#3 -258868157#2 -258868157#1 -258868157#0 -258849030 6197889 258868153#0 258868153#1 55988350#0 55988350#1 55988350#2 258915335#2 258859704 258859707#0 258859707#1 258859707#2 -259045789 -259041401 -137266215 -259785276 -137266217#2 -137266217#1 -137266217#0 -8033597 137266213#0 137266213#1 137266213#2 137266213#3 -23426215#4 -23426215#3 -23426215#2 -23426215#1 -148963953 139112767 147267704#0 147267704#1 139112769#0"/>
    </vehicle>
    <vehicle id="1019" depart="10.00">
        <route edges="55988350#4 258859716 23292800#5 302249554 -302249554 -258859712 -258859713#2 -258859713#1 -258859713#0 258859704 258859707#0 258859707#1 258859707#2 -259045789 -259041401 -137266215 -259785276 -137266217#2 -137266217#1 -137266217#0 -8033597 -137266216#2 356848287#3 356848287#4 356848287#5 40528320#1 40528320#2 40528320#3 40528320#4 40528320#5 146415828#0"/>
    </vehicle>
    <vehicle id="102" depart="10.00">
        <route edges="55988350#4 258859716 23292800#5 302249554 -302249554 -258859712 -258859713#2 -258859713#1 -258859713#0 258859704 258859707#0 258859707#1 258859707#2 -259045789 -259041401 -137266215 38811141#0 38811141#1 38811141#2 137266212#2 259785273#0 144731511#1 144731511#0 -98499671#1 -98499671#0"/>
    </vehicle>
    <vehicle id="1020" depart="10.00">
        <route edges="26563857#0 203463142#4 106115120#0 85265159 -144782194#15 -144782194#14 -144782194#13 -144782194#12 -144782194#11 -144782194#10 -144782194#9 -144782194#8 -144782194#7 -144782194#6 -144782194#5 -144782194#4 -144782194#3 -144782194#2 -144782194#1 -144782194#0 144782210#3 106115120#5 106115120#6 106115134#0 106115134#1 137266208#0 137266208#1 137266208#2 156869783#1 59486354#0 59486354#1 59486354#2 59486354#3 259020595 259020593 259020592 259020596#0 259020596#1 259020594 137266212#0 137266212#1 137266212#2 259785273#0"/>
    </vehicle>
    <vehicle id="1021" depart="10.00">
        <route edges="144783546#56 -144783546#56 -144783546#55 -144783546#54 -144783546#53 -144783546#52 -144783546#51 -144783546#50 -144783546#49 -144783546#48 -144783546#47 144783514 106115120#6 106115134#0 106115134#1 137266208#0 137266208#1 137266208#2 156869783#1 59486354#0 59486354#1 59486354#2 59486354#3 259020595 259020593 259020592 58963740#0 58963740#1 58963740#2 -137266216#2 -137266216#1 -137266216#0 -259041398#1 -170984889#5 -170984889#4 -170984889#3 -170984889#2 24664970#0 306294383#1"/>
    </vehicle>
    <vehicle id="1022" depart="10.00">
        <route edges="259041396#1 137266213#0 137266213#1 137266213#2 137266213#3 37937914#0 37937914#1 37937914#2 156869785#0 156869785#1 106880247 106880248 -23329196#1 -23329196#0 -203463142#4 26563857#1 151054347 151054346 -34412948 24405971 23464556 34412971#0 24405970 23214060#3"/>
    </vehicle>
    <vehicle id="1023" depart="10.00">
        <route edges="106115114#0 106115114#1 154524975#1 -23214060#13 -175572092 34412971#15 306294386#0 306294386#1 306294386#2 155208177 153334164#3 153334164#4 153334164#5 153334164#6 153334164#7 -59479975 37937914#0 37937914#1 37937914#2 4396828#0 4396828#1 4396828#2 4396828#3 -106115120#6 -106115120#5 -144782210#3 144782194#0 144782194#1 144782194#2 144782194#3 144782194#4 144782194#5 144782194#6 144782194#7 144782194#8 144782194#9 144782194#10 144782194#11 144782194#12 144782194#13 144782194#14 144782194#15 -144782194#15"/>
    </vehicle>
    <vehicle id="1024" depart="10.00">
        <route edges="26563857#0 203463142#4 106115120#0 85265159 -144782194#15 -144782194#14 -144782194#13 -144782194#12 -144782194#11 -144782194#10 -144782194#9 -144782194#8 -144782194#7 -144782194#6 -144782194#5 -144782194#4 -144782194#3 -144782194#2 -144782194#1 -144782194#0 144782210#3 106115120#5 106115120#6 106115134#0 106115134#1 137266208#0 137266208#1 137266208#2 156869783#1 59486354#0 59486354#1 59486354#2 59486354#3 259020595 259020593 259020592 58963740#0 58963740#1 58963740#2 -137266216#2 -137266216#1 -137266216#0 -259041398#1 -170984889#5 -170984889#4 -170984889#3 -170984889#2 24664970#0 306294383#1"/>
    </vehicle>
    <vehicle id="1025" depart="10.00">
        <route edges="144783546#56 144783546#57 144783546#58 144783546#59 144783546#60 144783546#61 144783546#62 144783546#63 144783510 -106115120#1 106115120#1"/>
    </vehicle>
    <vehicle id="1026" depart="10.00">
        <route edges="-106115120#4 -144783529 -144783546#56 -144783546#55 -144783546#54 -144783546#53 -144783546#52 -144783546#51 -144783546#50 -144783546#49 -144783546#48 -144783546#47 144783514 106115120#6 106115134#0 106115134#1 137266208#0 137266208#1 137266208#2 156869783#1 -59479975 -23426215#4 -23426215#3 -23426215#2 -23426215#1 -148963953 139112767 147267704#0 147267704#1 139112769#0"/>
    </vehicle>
    <vehicle id="1027" depart="10.00">
        <route edges="106115114#0 106115114#1 154524975#1 -23214060#13 -175572092 34412971#15 306294386#0 306294386#1 306294386#2 155208177 153334164#3 153334164#4 153334164#5 153334164#6 153334164#7 -59479975 -23426215#4 -23426215#3 -23426215#2 -23426215#1 -148963953 139112767 147267704#0 147267704#1 139112769#0"/>
    </vehicle>
    <vehicle id="1028" depart="10.00">
        <route edges="258868163#0 20814895#2 258868154#2 -258877676 -258877679#2 -258877679#1 -258877679#0 -258877678#2 -258877678#1 -258877678#0 -258877677 -258877675 -258876040 -258868157#3 -258868157#2 -258868157#1 -258868157#0 -258849030 6197889 258868153#0 258868153#1 55988350#0 55988350#1 55988350#2 258915335#2 258859704 258859707#0 258859707#1 258859707#2 -259045789 -259041401 -137266215 -259785276 -137266217#2 -137266217#1 -137266217#0 -8033597 137266213#0 137266213#1 137266213#2 137266213#3 37937914#0 37937914#1 37937914#2 156869785#0 26563911#0 26563911#1 26563911#2 26563911#3 106893316#0 106893316#1 217196259 218146055 218146093 310724506#0 310724507 218146221#0 218146221#1 217196258#0 217196258#1 217196258#2 217196258#3 217196258#4"/>
    </vehicle>
    <vehicle id="1030" depart="10.00">
        <route edges="217360634#1 217360634#2 217360636#2 217360636#3 218146106 218146072 -218146221#2 -218146221#1 -218146221#0 -310724507 310724506#1 310724506#2 310724506#3 311314551 311314550 311314558#0 311314558#1 311314558#2 311314558#3 311314558#4 106880247 106115148#1 106115148#2 106115148#3 156869783#0 156869783#1 59486354#0 59486354#1 59486354#2 59486354#3 259020595 259020593 259020592 259020596#0 259020596#1 259020594 137266212#0 137266212#1 137266212#2 259785273#0 144731511#1 144731511#0 -98499671#1 -98499671#0"/>
    </vehicle>
    <vehicle id="1032" depart="10.00">
        <route edges="55478156#5 259045788 6197889 258868153#0 258868153#1 55988350#0 55988350#1 55988350#2 258915335#2 258859704 258859707#0 258859707#1 258859707#2 -259045789 -259041401 -137266215 -259785276 -137266217#2 -137266217#1 -137266217#0 -8033597 137266213#0 137266213#1 137266213#2 137266213#3 37937914#0 37937914#1 37937914#2 4396828#0 4396828#1 4396828#2 106115168 137266209 106115113#1 106115136 -106115136 -144880135 144880136#1 -144880134 144880136#3"/>
    </vehicle>
    <vehicle id="1034" depart="10.00">
        <route edges="40600397#1 -40600397#1 -40600397#0 34756498#1 34756498#2 34756498#3 34756498#4 34756498#5 59486354#2 59486354#3 259020595 259020593 259020592 259020596#0 259020596#1 259020594 137266212#0 137266212#1 137266212#2 259785273#0"/>
    </vehicle>
    <vehicle id="1035" depart="10.00">
        <route edges="258868172#1 258868168#0 258868168#1 258868159 258868171#0 -23564424#0 -258849030 6197889 258868153#0 258868153#1 55988350#0 55988350#1 55988350#2 258915335#2 258859704 258859707#0 258859707#1 258859707#2 -259045789 -259041401 -137266215 38811141#0 38811141#1 38811141#2 137266212#2 259785273#0"/>
    </vehicle>
    <vehicle id="1037" depart="10.00">
        <route edges="34781134#0 34781134#1 -10797694#3 38772927 -23165419#1 -23165419#0 -259041401 -137266215 -259785276 -137266217#2 -137266217#1 -137266217#0 -8033597 137266213#0 137266213#1 137266213#2 137266213#3 37937914#0 37937914#1 37937914#2 4396828#0 4396828#1 4396828#2 4396828#3 -106115120#6 -106115120#5 -144782210#3 144782194#0 144782194#1 144782194#2 144782194#3 144782194#4 144782194#5 144782194#6 144782194#7 144782194#8 144782194#9 144782194#10 144782194#11 144782194#12 144782194#13 144782194#14 144782194#15 -85265159 106115120#1"/>
    </vehicle>
    <vehicle id="104" depart="10.00">
        <route edges="217360634#1 217360634#2 217360636#2 217360636#3 218146106 218146072 -218146221#2 -218146221#1 -218146221#0 -310724507 310724506#1 262670194#0 262670194#1 262670196 262670193 262670197#0 262670197#1 262670198#0 262670198#1 -262670199#1 -262670199#0 262670199#0"/>
    </vehicle>
    <vehicle id="1040" depart="10.00">
        <route edges="217360634#1 217360634#2 217360636#2 217360636#3 218146106 218146072 -218146221#2 -218146221#1 -218146221#0 -310724507 310724506#1 310724506#2 310724506#3 311314551 311314550 311314558#0 311314558#1 311314558#2 311314558#3 311314558#4 106880247 106880248 -23329196#1 -23329196#0 106115120#0 85265159 -144782194#15 -144782194#14 -144782194#13 -144782194#12 -144782194#11 -144782194#10 -144782194#9 -144782194#8 -144782194#7 -144782194#6 -144782194#5 -144782194#4 -144782194#3 -144782194#2 -144782194#1 -144782194#0 144784233#0"/>
    </vehicle>
    <vehicle id="1041" depart="10.00">
        <route edges="200680979#1 200680967#5 -200680970#1 -200680970#0 -200680967#1 -200680980 274224059#2 274224059#3 -258877680#1 -258877680#0 -10797638#3 -10797638#2 -10797638#1 -10797638#0 -258877678#2 -258877678#1 -258877678#0 -258877677 -258877675 -258876040 -258868157#3 -258868157#2 -258868157#1 -258868157#0 -258849030 6197889 258868153#0 258868153#1 55988350#0 55988350#1 55988350#2 258915335#2 258859704 258859707#0 258859707#1 258859707#2 -259045789 -259041401 -137266215 -259785276 -137266217#2 -137266217#1 -137266217#0 -8033597 137266213#0 137266213#1 137266213#2 137266213#3 37937914#0 37937914#1 37937914#2 4396828#0 4396828#1 4396828#2 4396828#3 -106115120#6 -106115120#5 -144782210#3 144782194#0 144782194#1 144782194#2 144782194#3 144782194#4 144782194#5 144782194#6 144782194#7 144782194#8 144782194#9 144782194#10 144782194#11 144782194#12 144782194#13 144782194#14 144782194#15 -144782194#15"/>
    </vehicle>
    <vehicle id="1042" depart="10.00">
        <route edges="40600397#1 -40600397#1 -40600397#0 34756498#1 34756498#2 34756498#3 34756498#4 137266213#3 37937914#0 37937914#1 37937914#2 156869785#0 156869785#1 106880247 106880248 -23329196#1 -23329196#0 -203463142#4 26563857#1 151054347 151054346 -34412948 24405971 23464556 34412971#0 24405970 23214060#3"/>
    </vehicle>
    <vehicle id="1043" depart="10.00">
        <route edges="259041396#1 137266213#0 55991694#1 58963740#2 -137266216#2 137266216#2 8033597 137266217#0 137266217#1 137266217#2 259785276 137266215 259041401 259045789 258859708#0 258859708#1 258859708#2 258859708#3 258859705 258859706#0 258859706#1 258859706#2 258859709 334998334#0 334998334#1 334998334#2 334998334#3 334998334#4 346178425#0 346178425#1 346178425#2 258844203#0 258844203#1 -32888407#8 -32888407#7 -32888407#6"/>
    </vehicle>
    <vehicle id="1044" depart="10.00">
        <route edges="55478156#5 259045788 6197889 258868153#0 258868153#1 55988350#0 55988350#1 55988350#2 258915335#2 258859704 258859707#0 258859707#1 258859707#2 -259045789 -259041401 -137266215 -259785276 -137266217#2 -137266217#1 -137266217#0 -8033597 137266213#0 137266213#1 137266213#2 137266213#3 37937914#0 37937914#1 37937914#2 156869785#0 156869785#1 106880247 106880248 -23329196#1 -23329196#0 -203463142#4 26563857#1 151054347 151054346 -34412948 24405971 23464556 34412971#0 24405970 23214060#3"/>
    </vehicle>
    <vehicle id="1045" depart="10.00">
        <route edges="200680979#1 200680967#5 -200680970#1 -200680970#0 -200680967#1 -200680980 274224059#2 274224059#3 -258877680#1 -258877680#0 -10797638#3 -10797638#2 -10797638#1 -10797638#0 -258877678#2 -258877678#1 -258877678#0 -258877677 -258877675 -258876040 -258868157#3 -258868157#2 -258868157#1 -258868157#0 -258849030 6197889 258868153#0 258868153#1 55988350#0 55988350#1 55988350#2 258915335#2 258859704 258859707#0 258859707#1 258859707#2 -259045789 -259041401 -137266215 -259785276 -137266217#2 -137266217#1 -137266217#0 -8033597 -137266216#2 356848287#3 356848287#4 356848287#5 40528320#1 40528320#2 40528320#3 40528320#4 40528320#5 146415828#0"/>
    </vehicle>
    <vehicle id="1047" depart="10.00">
        <route edges="346178426#0 -346178426#0 -10797607#1 -10797607#0 -274224065#1 -23165463 23165439#1 23165439#2 23165439#3 -274224054#1 -274224054#0 -23165298#2 -23165298#1 -23165298#0 -34756498#5 -34756498#4 -34756498#3 -34756498#2 -34756498#1 40600397#0 40600397#1 23216585#5 23216585#6 23216585#7 40528320#5 146415828#0"/>
    </vehicle>
    <vehicle id="1048" depart="10.00">
        <route edges="217360634#1 217360634#2 217360636#2 217360636#3 218146106 218146072 -218146221#2 -218146221#1 -218146221#0 -310724507 310724506#1 262670194#0 262670194#1 262670196 262670193 262670197#0 262670197#1 262670198#0 262670198#1 -262670199#1 -262670199#0 262670199#0"/>
    </vehicle>
    <vehicle id="1049" depart="10.00">
        <route edges="258868163#0 20814895#2 258868154#2 -258877676 -258877679#2 -258877679#1 -258877679#0 -258877678#2 -258877678#1 -258877678#0 -258877677 -258877675 -258876040 -258868157#3 -258868157#2 -258868157#1 -258868157#0 -258849030 6197889 258868153#0 258868153#1 55988350#0 55988350#1 55988350#2 258915335#2 258859704 258859707#0 258859707#1 258859707#2 -259045789 -259041401 -137266215 -259785276 -137266217#2 -137266217#1 -137266217#0 -8033597 -137266216#2 356848287#3 356848287#4 356848287#5 40528320#1 40528320#2 40528320#3 40528320#4 40528320#5 146415828#0"/>
    </vehicle>
    <vehicle id="105" depart="10.00">
        <route edges="258868163#0 20814895#2 258868154#2 -258877676 -258877679#2 -258877679#1 -258877679#0 -258877678#2 -258877678#1 -258877678#0 -258877677 -258877675 -258876040 -258868157#3 -258868157#2 -258868157#1 -258868157#0 -258849030 6197889 258868153#0 258868153#1 55988350#0 55988350#1 55988350#2 258915335#2 258859704 258859707#0 258859707#1 258859707#2 -259045789 -259041401 -137266215 -259785276 -137266217#2 -137266217#1 -137266217#0 -8033597 137266213#0 137266213#1 137266213#2 137266213#3 37937914#0 37937914#1 37937914#2 4396828#0 4396828#1 4396828#2 4396828#3 -106115120#6 -144783514 -144783544 144783546#26 144783546#27 144783546#28 144783546#29"/>
    </vehicle>
    <vehicle id="1052" depart="10.00">
        <route edges="258868163#0 20814895#2 258868154#2 -258877676 -258877679#2 -258877679#1 -258877679#0 -258877678#2 -258877678#1 -258877678#0 -258877677 -258877675 -258876040 -258868157#3 -258868157#2 -258868157#1 -258868157#0 -258849030 6197889 258868153#0 258868153#1 55988350#0 55988350#1 55988350#2 258915335#2 258859704 258859707#0 258859707#1 258859707#2 -259045789 -259041401 -137266215 -259785276 -137266217#2 -137266217#1 -137266217#0 -8033597 137266213#0 137266213#1 137266213#2 137266213#3 37937914#0 37937914#1 37937914#2 4396828#0 4396828#1 4396828#2 4396828#3 -106115120#6 -106115120#5 -144782210#3 144784233#0"/>
    </vehicle>
    <vehicle id="1053" depart="10.00">
        <route edges="258868172#1 258868168#0 258868168#1 258868159 258868171#0 -23564424#0 -258849030 6197889 258868153#0 258868153#1 55988350#0 55988350#1 55988350#2 258915335#2 258859704 258859707#0 258859707#1 258859707#2 -259045789 -259041401 -137266215 -259785276 -137266217#2 -137266217#1 -137266217#0 -8033597 137266213#0 137266213#1 137266213#2 137266213#3 37937914#0 37937914#1 37937914#2 156869785#0 26563911#0 26563911#1 26563911#2 26563911#3 106893316#0 106893316#1 217196259 218146055 218146093 310724506#0 310724507 218146221#0 218146221#1 217196258#0 217196258#1 217196258#2 217196258#3 217196258#4"/>
    </vehicle>
    <vehicle id="1054" depart="10.00">
        <route edges="200680979#1 200680967#5 -200680970#1 -200680970#0 -200680967#1 -200680980 274224059#2 274224059#3 -258877680#1 -258877680#0 -10797638#3 -10797638#2 -10797638#1 -10797638#0 -258877678#2 -258877678#1 -258877678#0 -258877677 -258877675 -258876040 -258868157#3 -258868157#2 -258868157#1 -258868157#0 -258849030 6197889 258868153#0 258868153#1 55988350#0 55988350#1 55988350#2 258915335#2 258859704 258859707#0 258859707#1 258859707#2 -259045789 -259041401 -137266215 -259785276 -137266217#2 -137266217#1 -137266217#0 -8033597 137266213#0 137266213#1 137266213#2 137266213#3 37937914#0 37937914#1 37937914#2 4396828#0 4396828#1 4396828#2 4396828#3 -106115120#6 -144783514 144783546#47 144783546#48 144783546#49 144783546#50 144783546#51 -144783528 -144783546#20 -144783546#19"/>
    </vehicle>
    <vehicle id="1055" depart="10.00">
        <route edges="258868172#1 258868168#0 258868168#1 258868159 258868171#0 -23564424#0 -258849030 6197889 258868153#0 258868153#1 55988350#0 55988350#1 55988350#2 258915335#2 258859704 258859707#0 258859707#1 258859707#2 -259045789 -259041401 -137266215 38811141#0 38811141#1 38811141#2 137266212#2 259785273#0"/>
    </vehicle>
    <vehicle id="1056" depart="10.00">
        <route edges="258868163#0 20814895#2 258868154#2 -258877676 -258877679#2 -258877679#1 -258877679#0 -258877678#2 -258877678#1 -258877678#0 -258877677 -258877675 -258876040 -258868157#3 -258868157#2 -258868157#1 -258868157#0 -258849030 6197889 258868153#0 258868153#1 55988350#0 55988350#1 55988350#2 258915335#2 258859704 258859707#0 258859707#1 258859707#2 -259045789 -259041401 -137266215 -259785276 -137266217#2 -137266217#1 -137266217#0 -8033597 -137266216#2 356848287#3 356848287#4 356848287#5 40528320#1 40528320#2 40528320#3 40528320#4 40528320#5 146415828#0"/>
    </vehicle>
    <vehicle id="1057" depart="10.00">
        <route edges="144783546#59 -144783546#59 -144783546#58 -144783546#57 -144783546#56 -144783546#55 -144783546#54 -144783546#53 -144783546#52 -144783546#51 -144783546#50 -144783546#49 -144783546#48 -144783557 144783546#25 144783546#26 144783546#27 144783546#28 144783546#29"/>
    </vehicle>
    <vehicle id="1058" depart="10.00">
        <route edges="200680979#1 200680967#5 -200680970#1 -200680970#0 -200680967#1 -200680980 274224059#2 274224059#3 -258877680#1 -258877680#0 -10797638#3 -10797638#2 -10797638#1 -10797638#0 -346178431#3 -346178431#2 -346178431#1 -346178431#0 -23292885 32888407#5 32888407#6 -32888407#6"/>
    </vehicle>
    <vehicle id="106" depart="10.00">
        <route edges="259041396#1 137266213#0 137266213#1 137266213#2 137266213#3 37937914#0 37937914#1 37937914#2 156869785#0 26563911#0 26563911#1 26563911#2 26563911#3 106893316#0 106893316#1 217196259 218146055 218146093 310724506#0 310724507 218146221#0 217360634#0 217360634#1 217360634#2 217360636#2 227694829 227694846 247732837 263610996 263611007#0"/>
    </vehicle>
    <vehicle id="1061" depart="10.00">
        <route edges="217360634#1 217360634#2 217360636#2 217360636#3 218146106 218146072 -218146221#2 -218146221#1 -218146221#0 -310724507 310724506#1 310724506#2 310724506#3 311314551 311314550 311314558#0 311314558#1 311314558#2 311314558#3 311314558#4 106880247 106115148#1 106115148#2 106115148#3 156869783#0 156869783#1 59486354#0 59486354#1 59486354#2 59486354#3 259020595 259020593 259020592 259020596#0 259020596#1 259020594 137266212#0 137266212#1 137266212#2 259785273#0"/>
    </vehicle>
    <vehicle id="1062" depart="10.00">
        <route edges="346178426#0 -346178426#0 -10797607#1 -10797607#0 -274224065#1 -274224065#0 -274224063#2 -274224063#1 -274224063#0 -15425944#2 -15425944#1 -15425944#0 59486354#3 259020595 259020593 259020592 58963740#0 58963740#1 58963740#2 -137266216#2 -137266216#1 -137266216#0 -259041398#1 -170984889#5 -170984889#4 -170984889#3 -170984889#2 24664970#0 306294383#1"/>
    </vehicle>
    <vehicle id="1063" depart="10.00">
        <route edges="259041396#1 137266213#0 137266213#1 137266213#2 137266213#3 37937914#0 37937914#1 37937914#2 4396828#0 4396828#1 4396828#2 4396828#3 -106115120#6 -106115120#5 -144782210#3 144782194#0 144782194#1 144782194#2 144782194#3 144782194#4 144782194#5 144782194#6 144782194#7 144782194#8 144782194#9 144782194#10 144782194#11 144782194#12 144782194#13 144782194#14 144782194#15 -144782194#15"/>
    </vehicle>
    <vehicle id="1065" depart="10.00">