<?xml version="1.0" encoding="UTF-8"?>

<!-- generated on 07/17/15 11:19:18 by SUMO polyconvert Version 0.21.0
<?xml version="1.0" encoding="UTF-8"?>

<configuration xmlns:xsi="http://www.w3.org/2001/XMLSchema-instance" xsi:noNamespaceSchemaLocation="http://sumo-sim.org/xsd/polyconvertConfiguration.xsd">

    <input>
        <osm-files value="C:\veinsSimConnectionToUnity\Veins\darmstadt\ruesseslsheimopel.osm"/>
        <type-file value="C:\veinsSimConnectionToUnity\Veins\darmstadt\sumo-0.21.0\data\typemap\osmPolyconvert.typ.xml"/>
    </input>

    <output>
        <output-file value="C:\veinsSimConnectionToUnity\Veins\darmstadt\ruesseslsheimopel.poly.xml"/>
    </output>

    <projection>
        <proj.scale value="0"/>
        <proj.utm value="true"/>
    </projection>

</configuration>
-->

<additional xmlns:xsi="http://www.w3.org/2001/XMLSchema-instance" xsi:noNamespaceSchemaLocation="http://sumo-sim.org/xsd/additional_file.xsd">
    <poly id="101728176" type="building" color="255,230,230" fill="1" layer="-1.00" shape="459301.65,5536506.57 459297.10,5536518.03 459317.05,5536524.67 459321.71,5536528.17 459325.97,5536550.43 459339.04,5536548.43 459333.94,5536522.92 459351.87,5536508.18 459344.11,5536498.65 459324.86,5536512.11 459301.65,5536506.57"/>
    <poly id="101739003" type="parking" color="184,184,179" fill="1" layer="-1.00" shape="458916.20,5536929.73 458929.72,5536937.83 458937.35,5536924.40 458942.87,5536912.40 458946.23,5536901.16 458948.51,5536885.10 458952.41,5536872.20 458958.68,5536857.97 458962.39,5536846.81 458962.78,5536837.80 458961.31,5536829.93 458957.89,5536822.20 458952.83,5536815.88 458947.24,5536811.05 458941.50,5536807.93 458934.23,5536805.74 458925.82,5536804.80 458916.67,5536805.84 458906.58,5536810.70 458913.49,5536824.04 458918.56,5536822.33 458924.57,5536821.41 458930.80,5536821.62 458935.65,5536823.83 458940.28,5536826.36 458943.51,5536831.26 458945.97,5536837.15 458946.00,5536843.79 458939.80,5536859.32 458934.67,5536872.92 458932.44,5536881.79 458930.18,5536896.80 458926.98,5536906.68 458922.46,5536918.06 458916.20,5536929.73"/>
    <poly id="106227273" type="landuse" color="194,194,130" fill="1" layer="-3.00" shape="458845.73,5536675.65 458884.75,5536532.96 458961.39,5536565.37 458968.42,5536573.16 459034.37,5536712.98 459045.46,5536749.80 459051.31,5536777.16 459054.51,5536804.52 459054.56,5536844.86 459049.32,5536877.48 459043.57,5536910.77 459032.48,5536941.56 458973.75,5537066.56 458908.09,5537036.41 458933.98,5536949.30 458973.68,5536813.73 458830.34,5536774.19 458835.10,5536757.60 458837.51,5536749.19 459010.36,5536794.55 459003.43,5536777.69 458985.72,5536726.64 458975.64,5536717.24 458959.89,5536711.25 458845.73,5536675.65"/>
    <poly id="138946064" type="building" color="255,230,230" fill="1" layer="-1.00" shape="458231.23,5536654.54 458242.96,5536654.88 458244.62,5536604.74 458198.14,5536603.21 458197.73,5536616.33 458222.30,5536616.98 458232.46,5536617.36 458231.23,5536654.54"/>
    <poly id="138946065" type="building" color="255,230,230" fill="1" layer="-1.00" shape="458267.58,5536666.25 458267.94,5536655.72 458242.96,5536654.88 458231.23,5536654.54 458221.30,5536654.32 458194.67,5536653.62 458191.70,5536653.52 458191.35,5536663.69 458267.58,5536666.25"/>
    <poly id="138946070" type="building" color="255,230,230" fill="1" layer="-1.00" shape="458319.02,5536677.10 458321.51,5536605.23 458309.36,5536604.81 458307.25,5536665.52 458280.36,5536664.59 458280.73,5536653.85 458268.33,5536653.42 458267.94,5536655.72 458267.58,5536666.25 458267.33,5536681.25 458273.29,5536681.46 458279.21,5536681.66 458279.41,5536675.73 458319.02,5536677.10"/>
    <poly id="138946327" type="parking" color="184,184,179" fill="1" layer="-1.00" shape="458254.90,5536671.53 458254.15,5536689.80 458194.67,5536687.37 458195.42,5536669.10 458254.90,5536671.53"/>
    <poly id="138949592" type="industrial" color="209,209,204" fill="1" layer="-3.00" shape="458915.05,5536702.83 458904.12,5536712.68 458896.38,5536724.59 458892.46,5536740.34 458892.33,5536755.73 458896.69,5536763.76 458985.30,5536787.25 458996.38,5536782.94 458998.68,5536779.99 458984.80,5536739.65 458978.86,5536729.36 458972.15,5536721.25 458915.05,5536702.83"/>
    <poly id="138949592#1" type="building" color="255,230,230" fill="1" layer="-1.00" shape="458915.05,5536702.83 458904.12,5536712.68 458896.38,5536724.59 458892.46,5536740.34 458892.33,5536755.73 458896.69,5536763.76 458985.30,5536787.25 458996.38,5536782.94 458998.68,5536779.99 458984.80,5536739.65 458978.86,5536729.36 458972.15,5536721.25 458915.05,5536702.83"/>
    <poly id="138952404" type="building" color="255,230,230" fill="1" layer="-1.00" shape="459094.46,5536977.31 459105.34,5536955.93 459065.75,5536935.43 459062.51,5536941.00 459054.55,5536956.27 459094.46,5536977.31"/>
    <poly id="138952404#1" type="shop" color="237,199,255" fill="1" layer="-1.00" shape="459094.46,5536977.31 459105.34,5536955.93 459065.75,5536935.43 459062.51,5536941.00 459054.55,5536956.27 459094.46,5536977.31"/>
    <poly id="138952844" type="parking" color="184,184,179" fill="1" layer="-1.00" shape="459074.64,5537078.24 459077.04,5537073.35 459079.34,5537068.65 459090.78,5537045.35 459104.73,5537016.89 459076.26,5537002.99 459061.17,5536995.64 459051.11,5537016.00 459054.31,5537017.57 459047.39,5537031.90 459043.25,5537040.33 459040.02,5537038.75 459037.55,5537043.78 459012.81,5537031.71 459009.67,5537038.11 459006.33,5537044.91 459074.64,5537078.24"/>
    <poly id="138952979" type="parking" color="184,184,179" fill="1" layer="-1.00" shape="459119.47,5537088.64 459079.34,5537068.65 459090.78,5537045.35 459131.10,5537065.42 459119.47,5537088.64"/>
    <poly id="139072947" type="parking" color="184,184,179" fill="1" layer="-1.00" shape="458722.46,5537256.95 458819.98,5537160.75 458853.86,5537195.83 458777.94,5537281.91 458722.46,5537256.95"/>
    <poly id="139074412" type="leisure" color="207,245,201" fill="1" layer="-2.00" shape="458644.02,5537324.89 458644.61,5537326.81 458646.35,5537327.94 458648.47,5537328.50 458650.20,5537327.33 458650.75,5537325.42 458649.87,5537323.38 458645.35,5537322.20 458644.51,5537320.29 458638.92,5537318.61 458636.40,5537319.03 458635.25,5537320.97 458635.57,5537326.52 458637.72,5537326.94 458637.24,5537323.25 458644.02,5537324.89"/>
    <poly id="139074413" type="leisure" color="207,245,201" fill="1" layer="-2.00" shape="458644.02,5537318.06 458652.82,5537319.94 458652.44,5537321.28 458669.89,5537324.93 458671.86,5537323.03 458674.29,5537309.17 458671.89,5537306.31 458652.88,5537301.43 458649.42,5537302.61 458648.15,5537308.46 458646.00,5537307.81 458644.02,5537318.06"/>
    <poly id="139074413#1" type="sport" color="79,230,125" fill="1" layer="-2.00" shape="458644.02,5537318.06 458652.82,5537319.94 458652.44,5537321.28 458669.89,5537324.93 458671.86,5537323.03 458674.29,5537309.17 458671.89,5537306.31 458652.88,5537301.43 458649.42,5537302.61 458648.15,5537308.46 458646.00,5537307.81 458644.02,5537318.06"/>
    <poly id="139074415" type="building" color="255,230,230" fill="1" layer="-1.00" shape="458642.75,5537327.91 458639.01,5537347.12 458634.67,5537346.29 458618.81,5537343.22 458622.54,5537324.01 458635.57,5537326.52 458637.72,5537326.94 458642.75,5537327.91"/>
    <poly id="139074416" type="leisure" color="207,245,201" fill="1" layer="-2.00" shape="458639.62,5537290.42 458688.62,5537303.56 458694.19,5537282.91 458645.20,5537269.75 458639.62,5537290.42"/>
    <poly id="139074416#1" type="sport" color="79,230,125" fill="1" layer="-2.00" shape="458639.62,5537290.42 458688.62,5537303.56 458694.19,5537282.91 458645.20,5537269.75 458639.62,5537290.42"/>
    <poly id="139109887" type="building" color="255,230,230" fill="1" layer="-1.00" shape="457998.68,5537356.01 458003.33,5537330.89 457994.29,5537329.23 457994.99,5537325.42 457986.54,5537323.87 457985.86,5537327.58 457951.65,5537321.29 457946.98,5537346.52 457955.84,5537348.15 457960.99,5537349.09 457998.68,5537356.01"/>
    <poly id="139109887#1" type="shop" color="237,199,255" fill="1" layer="-1.00" shape="457998.68,5537356.01 458003.33,5537330.89 457994.29,5537329.23 457994.99,5537325.42 457986.54,5537323.87 457985.86,5537327.58 457951.65,5537321.29 457946.98,5537346.52 457955.84,5537348.15 457960.99,5537349.09 457998.68,5537356.01"/>
    <poly id="139110260" type="building" color="255,230,230" fill="1" layer="-1.00" shape="457953.64,5537361.38 457958.11,5537362.19 457960.99,5537349.09 457955.84,5537348.15 457953.64,5537361.38"/>
    <poly id="139110261" type="parking" color="184,184,179" fill="1" layer="-1.00" shape="457922.71,5537405.52 457952.67,5537373.43 457958.11,5537362.19 457953.64,5537361.38 457955.84,5537348.15 457946.98,5537346.52 457951.65,5537321.29 457954.60,5537315.48 457944.40,5537313.46 457934.96,5537312.77 457925.54,5537312.84 457918.44,5537313.47 457912.50,5537316.58 457907.34,5537321.04 457904.31,5537326.24 457903.57,5537334.10 457901.08,5537384.93 457922.71,5537405.52"/>
    <poly id="139249849" type="amenity" color="237,199,199" fill="1" layer="-1.00" shape="458175.85,5536593.40 458219.72,5536594.75 458221.38,5536510.33 458172.51,5536508.72 458175.31,5536546.48 458175.85,5536593.40"/>
    <poly id="139250267" type="building" color="255,230,230" fill="1" layer="-1.00" shape="458208.52,5536587.01 458208.85,5536578.95 458195.76,5536578.48 458197.25,5536547.40 458181.48,5536546.76 458180.98,5536556.73 458182.71,5536556.91 458181.79,5536586.45 458208.52,5536587.01"/>
    <poly id="139349729" type="building" color="255,230,230" fill="1" layer="-1.00" shape="458788.35,5537065.27 458791.97,5537049.72 458853.38,5537063.94 458839.18,5537124.93 458777.77,5537110.71 458788.35,5537065.27"/>
    <poly id="139832042" type="building" color="255,230,230" fill="1" layer="-1.00" shape="458655.47,5537490.65 458656.88,5537470.86 458662.92,5537471.29 458663.28,5537466.14 458667.08,5537466.40 458667.65,5537462.08 458686.55,5537463.45 458684.99,5537484.79 458674.15,5537484.20 458673.60,5537491.92 458655.47,5537490.65"/>
    <poly id="141209607" type="amenity" color="237,199,199" fill="1" layer="-1.00" shape="457623.21,5537207.83 457744.54,5537232.91 457748.73,5537128.80 457622.38,5537102.95 457623.21,5537207.83"/>
    <poly id="141465664" type="building" color="255,230,230" fill="1" layer="-1.00" shape="459093.13,5536887.83 459112.82,5536897.94 459124.06,5536876.17 459104.36,5536866.06 459093.13,5536887.83"/>
    <poly id="141465664#1" type="shop" color="237,199,255" fill="1" layer="-1.00" shape="459093.13,5536887.83 459112.82,5536897.94 459124.06,5536876.17 459104.36,5536866.06 459093.13,5536887.83"/>
    <poly id="141471094" type="building" color="255,230,230" fill="1" layer="-1.00" shape="457894.03,5537686.43 457894.16,5537679.28 457905.44,5537679.48 457905.31,5537686.64 457898.66,5537686.52 457894.03,5537686.43"/>
    <poly id="141471095" type="building" color="255,230,230" fill="1" layer="-1.00" shape="457958.22,5537690.79 457956.10,5537689.85 457946.76,5537685.81 457920.64,5537674.76 457924.42,5537665.97 457962.00,5537682.02 457958.22,5537690.79"/>
    <poly id="141471096" type="building" color="255,230,230" fill="1" layer="-1.00" shape="457894.16,5537679.28 457905.44,5537679.48 457905.50,5537673.86 457909.51,5537670.57 457920.64,5537674.76 457924.42,5537665.97 457911.36,5537660.96 457907.02,5537660.01 457906.65,5537663.22 457902.99,5537662.65 457900.08,5537663.84 457898.15,5537665.83 457896.94,5537668.51 457896.61,5537671.29 457894.33,5537671.25 457894.16,5537679.28"/>
    <poly id="141471096#1" type="shop" color="237,199,255" fill="1" layer="-1.00" shape="457894.16,5537679.28 457905.44,5537679.48 457905.50,5537673.86 457909.51,5537670.57 457920.64,5537674.76 457924.42,5537665.97 457911.36,5537660.96 457907.02,5537660.01 457906.65,5537663.22 457902.99,5537662.65 457900.08,5537663.84 457898.15,5537665.83 457896.94,5537668.51 457896.61,5537671.29 457894.33,5537671.25 457894.16,5537679.28"/>
    <poly id="144463674" type="building" color="255,230,230" fill="1" layer="-1.00" shape="457957.32,5537423.13 457974.65,5537405.28 457967.32,5537398.20 457949.99,5537416.05 457957.32,5537423.13"/>
    <poly id="144463675" type="building" color="255,230,230" fill="1" layer="-1.00" shape="458000.04,5537397.51 458005.40,5537389.02 458014.26,5537394.57 458008.90,5537403.07 458000.04,5537397.51"/>
    <poly id="144463677" type="building" color="255,230,230" fill="1" layer="-1.00" shape="458007.58,5537385.07 458013.22,5537375.47 458022.35,5537380.80 458016.71,5537390.41 458007.58,5537385.07"/>
    <poly id="144463679" type="building" color="255,230,230" fill="1" layer="-1.00" shape="458014.33,5537372.37 458018.87,5537361.69 458029.06,5537366.00 458026.55,5537371.91 458030.07,5537373.39 458028.04,5537378.17 458014.33,5537372.37"/>
    <poly id="144463680" type="building" color="255,230,230" fill="1" layer="-1.00" shape="457971.51,5537432.04 457978.64,5537424.76 457987.09,5537432.99 457979.97,5537440.26 457971.51,5537432.04"/>
    <poly id="144463681" type="building" color="255,230,230" fill="1" layer="-1.00" shape="457982.80,5537395.11 457988.91,5537385.08 457980.40,5537379.92 457975.75,5537387.54 457978.81,5537389.39 457977.34,5537391.81 457982.80,5537395.11"/>
    <poly id="144463683" type="building" color="255,230,230" fill="1" layer="-1.00" shape="457980.03,5537422.97 457993.36,5537434.72 457997.34,5537430.22 457992.20,5537425.68 457997.68,5537419.50 457989.51,5537412.29 457980.03,5537422.97"/>
    <poly id="144463684" type="building" color="255,230,230" fill="1" layer="-1.00" shape="457982.86,5537377.27 457987.15,5537368.75 457995.98,5537373.15 457991.69,5537381.69 457982.86,5537377.27"/>
    <poly id="144463685" type="building" color="255,230,230" fill="1" layer="-1.00" shape="457991.30,5537412.48 457997.36,5537404.27 458004.65,5537409.63 457998.60,5537417.82 457991.30,5537412.48"/>
    <poly id="144463686" type="building" color="255,230,230" fill="1" layer="-1.00" shape="457990.15,5537367.11 457993.76,5537358.95 458001.21,5537362.23 457997.59,5537370.39 457990.15,5537367.11"/>
    <poly id="144463687" type="building" color="255,230,230" fill="1" layer="-1.00" shape="457833.79,5537373.34 457835.74,5537361.56 457840.58,5537362.36 457841.43,5537357.18 457844.43,5537357.67 457845.13,5537353.48 457849.46,5537354.19 457851.08,5537344.44 457856.06,5537345.26 457856.82,5537340.69 457858.61,5537340.99 457860.61,5537328.94 457856.63,5537328.28 457857.54,5537322.80 457839.61,5537319.83 457839.95,5537317.76 457836.41,5537317.18 457838.27,5537305.96 457863.18,5537310.06 457861.99,5537317.27 457870.98,5537318.74 457869.42,5537328.12 457873.21,5537328.74 457869.39,5537351.77 457864.19,5537350.91 457863.80,5537353.25 457862.12,5537352.97 457861.10,5537359.10 457855.84,5537358.23 457854.30,5537367.48 457849.80,5537366.73 457849.32,5537369.64 457847.76,5537369.37 457846.75,5537375.47 457833.79,5537373.34"/>
    <poly id="144463688" type="building" color="255,230,230" fill="1" layer="-1.00" shape="457994.81,5537483.49 458001.47,5537477.40 458013.23,5537490.16 458006.58,5537496.25 457994.81,5537483.49"/>
    <poly id="144463689" type="building" color="255,230,230" fill="1" layer="-1.00" shape="457969.25,5537495.30 457972.81,5537492.02 457977.00,5537496.56 457973.44,5537499.82 457969.25,5537495.30"/>
    <poly id="144463690" type="building" color="255,230,230" fill="1" layer="-1.00" shape="458056.44,5537462.99 458063.13,5537456.28 458070.06,5537463.15 458063.37,5537469.87 458056.44,5537462.99"/>
    <poly id="144463691" type="building" color="255,230,230" fill="1" layer="-1.00" shape="458053.52,5537357.54 458056.61,5537343.06 458066.29,5537345.11 458063.20,5537359.59 458053.52,5537357.54"/>
    <poly id="144463692" type="building" color="255,230,230" fill="1" layer="-1.00" shape="458081.81,5537374.03 458091.46,5537376.98 458088.36,5537386.96 458078.83,5537383.59 458081.81,5537374.03"/>
    <poly id="144463693" type="building" color="255,230,230" fill="1" layer="-1.00" shape="458006.31,5537405.07 458012.81,5537409.33 458010.61,5537412.66 458004.11,5537408.40 458006.31,5537405.07"/>
    <poly id="144463694" type="building" color="255,230,230" fill="1" layer="-1.00" shape="457984.01,5537464.00 457987.51,5537460.81 457984.53,5537457.75 457980.76,5537461.18 457984.01,5537464.00"/>
    <poly id="144463695" type="building" color="255,230,230" fill="1" layer="-1.00" shape="458063.69,5537415.06 458069.28,5537407.81 458075.94,5537412.92 458070.36,5537420.16 458063.69,5537415.06"/>
    <poly id="144463697" type="building" color="255,230,230" fill="1" layer="-1.00" shape="458037.41,5537484.59 458043.97,5537477.95 458051.45,5537485.28 458044.88,5537491.93 458037.41,5537484.59"/>
    <poly id="144463698" type="building" color="255,230,230" fill="1" layer="-1.00" shape="458076.40,5537442.83 458083.07,5537434.13 458092.58,5537441.38 458085.91,5537450.09 458076.40,5537442.83"/>
    <poly id="144463699" type="building" color="255,230,230" fill="1" layer="-1.00" shape="458084.58,5537360.32 458086.95,5537349.70 458097.78,5537352.09 458095.42,5537362.72 458084.58,5537360.32"/>
    <poly id="144463700" type="building" color="255,230,230" fill="1" layer="-1.00" shape="458101.33,5537405.92 458113.46,5537412.87 458107.79,5537422.73 458095.65,5537415.79 458101.33,5537405.92"/>
    <poly id="144463702" type="building" color="255,230,230" fill="1" layer="-1.00" shape="458055.49,5537420.16 458059.02,5537416.67 458054.86,5537412.49 458051.33,5537415.98 458055.49,5537420.16"/>
    <poly id="144463704" type="building" color="255,230,230" fill="1" layer="-1.00" shape="458038.20,5537348.98 458040.13,5537339.14 458050.79,5537341.22 458048.87,5537351.05 458038.20,5537348.98"/>
    <poly id="144463705" type="building" color="255,230,230" fill="1" layer="-1.00" shape="457931.59,5537413.70 457936.43,5537408.63 457945.02,5537399.61 457953.88,5537408.00 457940.44,5537422.09 457931.59,5537413.70"/>
    <poly id="144463706" type="building" color="255,230,230" fill="1" layer="-1.00" shape="457975.85,5537463.65 457985.68,5537454.41 457977.82,5537446.08 457967.98,5537455.32 457975.85,5537463.65"/>
    <poly id="144463709" type="building" color="255,230,230" fill="1" layer="-1.00" shape="457904.29,5537452.97 457904.33,5537440.59 457915.94,5537440.62 457915.90,5537453.01 457904.29,5537452.97"/>
    <poly id="144463710" type="building" color="255,230,230" fill="1" layer="-1.00" shape="458055.77,5537425.12 458062.96,5537417.73 458069.90,5537424.44 458062.70,5537431.83 458055.77,5537425.12"/>
    <poly id="144463711" type="building" color="255,230,230" fill="1" layer="-1.00" shape="457920.49,5537436.75 457929.97,5537426.77 457938.48,5537434.80 457928.99,5537444.79 457920.49,5537436.75"/>
    <poly id="144463712" type="building" color="255,230,230" fill="1" layer="-1.00" shape="458040.87,5537460.43 458047.59,5537452.61 458034.78,5537441.67 458028.06,5537449.50 458040.87,5537460.43"/>
    <poly id="144463713" type="building" color="255,230,230" fill="1" layer="-1.00" shape="457929.70,5537469.12 457936.33,5537461.97 457940.24,5537465.57 457933.61,5537472.73 457929.70,5537469.12"/>
    <poly id="144463714" type="building" color="255,230,230" fill="1" layer="-1.00" shape="458083.88,5537371.60 458085.74,5537362.54 458094.53,5537364.34 458092.67,5537373.39 458083.88,5537371.60"/>
    <poly id="144463715" type="building" color="255,230,230" fill="1" layer="-1.00" shape="458051.55,5537445.71 458058.62,5537437.68 458048.17,5537428.53 458041.10,5537436.57 458051.55,5537445.71"/>
    <poly id="144463717" type="building" color="255,230,230" fill="1" layer="-1.00" shape="457959.30,5537469.56 457964.88,5537464.28 457969.32,5537468.95 457963.74,5537474.23 457959.30,5537469.56"/>
    <poly id="144463718" type="building" color="255,230,230" fill="1" layer="-1.00" shape="457978.87,5537503.97 457986.93,5537495.55 457996.64,5537504.78 457988.59,5537513.21 457978.87,5537503.97"/>
    <poly id="144463719" type="building" color="255,230,230" fill="1" layer="-1.00" shape="457930.65,5537450.41 457940.23,5537440.30 457949.96,5537449.46 457940.38,5537459.58 457930.65,5537450.41"/>
    <poly id="144463720" type="building" color="255,230,230" fill="1" layer="-1.00" shape="458015.09,5537486.74 458009.34,5537479.96 458015.76,5537474.55 458021.50,5537481.33 458015.09,5537486.74"/>
    <poly id="144463721" type="building" color="255,230,230" fill="1" layer="-1.00" shape="457974.49,5537489.04 457981.12,5537482.54 457986.78,5537488.28 457980.15,5537494.78 457974.49,5537489.04"/>
    <poly id="144463723" type="building" color="255,230,230" fill="1" layer="-1.00" shape="458027.95,5537493.38 458034.37,5537486.87 458041.44,5537493.81 458035.01,5537500.32 458027.95,5537493.38"/>
    <poly id="144463724" type="building" color="255,230,230" fill="1" layer="-1.00" shape="457940.85,5537466.80 457954.05,5537453.26 457963.68,5537462.61 457950.47,5537476.13 457940.85,5537466.80"/>
    <poly id="144463727" type="building" color="255,230,230" fill="1" layer="-1.00" shape="457988.68,5537477.77 457996.00,5537471.22 457991.07,5537465.74 457983.74,5537472.28 457988.68,5537477.77"/>
    <poly id="144463728" type="building" color="255,230,230" fill="1" layer="-1.00" shape="458003.40,5537519.60 458010.62,5537512.68 458018.35,5537520.69 458011.13,5537527.62 458003.40,5537519.60"/>
    <poly id="144463729" type="building" color="255,230,230" fill="1" layer="-1.00" shape="458023.57,5537478.54 458018.25,5537472.91 458023.53,5537467.94 458028.85,5537473.57 458023.57,5537478.54"/>
    <poly id="144463732" type="building" color="255,230,230" fill="1" layer="-1.00" shape="457964.42,5537478.75 457971.58,5537472.11 457978.05,5537479.04 457970.88,5537485.69 457964.42,5537478.75"/>
    <poly id="144463733" type="building" color="255,230,230" fill="1" layer="-1.00" shape="458054.41,5537479.46 458061.00,5537472.32 458054.05,5537465.95 458047.46,5537473.10 458054.41,5537479.46"/>
    <poly id="144463734" type="building" color="255,230,230" fill="1" layer="-1.00" shape="458086.79,5537428.74 458091.67,5537421.74 458099.26,5537427.02 458094.38,5537434.01 458086.79,5537428.74"/>
    <poly id="144463736" type="building" color="255,230,230" fill="1" layer="-1.00" shape="458068.48,5537354.90 458070.26,5537345.83 458080.75,5537347.88 458078.96,5537356.95 458068.48,5537354.90"/>
    <poly id="144463738" type="building" color="255,230,230" fill="1" layer="-1.00" shape="458101.33,5537401.31 458107.14,5537384.63 458118.77,5537388.65 458112.96,5537405.33 458101.33,5537401.31"/>
    <poly id="144463739" type="building" color="255,230,230" fill="1" layer="-1.00" shape="458023.66,5537347.09 458025.06,5537336.51 458036.02,5537337.96 458034.62,5537348.54 458023.66,5537347.09"/>
    <poly id="144463740" type="building" color="255,230,230" fill="1" layer="-1.00" shape="458018.32,5537503.12 458025.45,5537495.90 458035.66,5537505.93 458028.54,5537513.15 458018.32,5537503.12"/>
    <poly id="144463741" type="building" color="255,230,230" fill="1" layer="-1.00" shape="458066.91,5537453.42 458072.91,5537446.43 458080.36,5537452.79 458074.37,5537459.77 458066.91,5537453.42"/>
    <poly id="144463743" type="building" color="255,230,230" fill="1" layer="-1.00" shape="457905.07,5537416.12 457917.11,5537416.06 457917.17,5537427.60 457908.36,5537427.64 457908.35,5537425.60 457905.12,5537425.62 457905.07,5537416.12"/>
    <poly id="144463745" type="building" color="255,230,230" fill="1" layer="-1.00" shape="457868.89,5537373.64 457868.99,5537361.88 457884.64,5537362.00 457884.53,5537375.84 457875.78,5537375.77 457875.80,5537373.70 457868.89,5537373.64"/>
    <poly id="144463746" type="building" color="255,230,230" fill="1" layer="-1.00" shape="458078.74,5537409.65 458083.40,5537401.42 458074.11,5537396.18 458071.92,5537400.07 458067.45,5537397.56 458064.99,5537401.92 458078.74,5537409.65"/>
    <poly id="144463748" type="building" color="255,230,230" fill="1" layer="-1.00" shape="458110.74,5537369.71 458111.45,5537365.73 458109.78,5537365.44 458111.25,5537357.22 458113.29,5537357.58 458113.97,5537353.72 458125.59,5537355.79 458122.74,5537371.83 458110.74,5537369.71"/>
    <poly id="144463750" type="building" color="255,230,230" fill="1" layer="-1.00" shape="457883.68,5537401.22 457883.90,5537388.39 457871.16,5537388.17 457871.09,5537392.43 457868.02,5537392.39 457867.81,5537404.91 457876.71,5537405.05 457876.78,5537401.11 457883.68,5537401.22"/>
    <poly id="144463751" type="building" color="255,230,230" fill="1" layer="-1.00" shape="457929.22,5537173.89 457930.39,5537150.45 457962.49,5537150.65 457983.13,5537131.10 457999.53,5537147.20 457980.25,5537167.19 457981.89,5537204.14 457959.29,5537204.31 457958.61,5537174.56 457929.22,5537173.89"/>
    <poly id="144464792" type="building" color="255,230,230" fill="1" layer="-1.00" shape="458031.79,5537470.72 458025.99,5537464.99 458031.23,5537459.72 458037.02,5537465.46 458031.79,5537470.72"/>
    <poly id="144472689" type="amenity" color="237,199,199" fill="1" layer="-1.00" shape="458136.87,5537841.67 458160.40,5537834.70 458143.31,5537777.25 458119.78,5537784.22 458136.87,5537841.67"/>
    <poly id="144472689#1" type="building" color="255,230,230" fill="1" layer="-1.00" shape="458136.87,5537841.67 458160.40,5537834.70 458143.31,5537777.25 458119.78,5537784.22 458136.87,5537841.67"/>
    <poly id="144472696" type="building" color="255,230,230" fill="1" layer="-1.00" shape="458141.15,5537889.62 458156.87,5537895.75 458157.46,5537894.41 458153.37,5537880.83 458150.17,5537881.79 458146.54,5537869.73 458149.31,5537868.90 458145.46,5537856.08 458170.34,5537848.63 458184.50,5537895.67 458168.69,5537900.36 458164.68,5537909.25 458164.30,5537910.08 458136.85,5537899.66 458141.15,5537889.62"/>
    <poly id="144472697" type="building" color="255,230,230" fill="1" layer="-1.00" shape="458135.18,5537488.65 458126.07,5537483.31 458131.87,5537473.49 458140.82,5537479.13 458135.18,5537488.65"/>
    <poly id="144472699" type="building" color="255,230,230" fill="1" layer="-1.00" shape="458149.19,5537464.20 458135.47,5537457.18 458137.45,5537453.32 458143.10,5537456.20 458145.72,5537451.09 458153.81,5537455.23 458149.19,5537464.20"/>
    <poly id="144472700" type="building" color="255,230,230" fill="1" layer="-1.00" shape="458036.71,5537521.18 458043.71,5537514.54 458049.90,5537521.04 458049.37,5537521.55 458042.92,5537527.69 458036.71,5537521.18"/>
    <poly id="144472702" type="building" color="255,230,230" fill="1" layer="-1.00" shape="458095.77,5537543.01 458087.58,5537535.50 458094.09,5537528.47 458102.26,5537535.98 458095.77,5537543.01"/>
    <poly id="144472704" type="building" color="255,230,230" fill="1" layer="-1.00" shape="458119.37,5537511.22 458108.52,5537503.43 458114.38,5537495.33 458125.23,5537503.14 458119.37,5537511.22"/>
    <poly id="144472706" type="building" color="255,230,230" fill="1" layer="-1.00" shape="458114.15,5537546.18 458125.15,5537555.90 458131.19,5537549.09 458120.19,5537539.38 458114.15,5537546.18"/>
    <poly id="144472708" type="building" color="255,230,230" fill="1" layer="-1.00" shape="458095.77,5537588.52 458104.92,5537601.67 458114.02,5537595.35 458104.84,5537582.19 458095.77,5537588.52"/>
    <poly id="144472709" type="building" color="255,230,230" fill="1" layer="-1.00" shape="458100.94,5537508.64 458095.64,5537504.26 458099.68,5537499.41 458104.97,5537503.80 458100.94,5537508.64"/>
    <poly id="144472710" type="building" color="255,230,230" fill="1" layer="-1.00" shape="458162.30,5537489.49 458191.58,5537496.12 458194.20,5537484.60 458164.93,5537477.97 458162.30,5537489.49"/>
    <poly id="144472712" type="building" color="255,230,230" fill="1" layer="-1.00" shape="458051.38,5537590.47 458044.18,5537582.94 458051.80,5537575.68 458059.01,5537583.19 458051.38,5537590.47"/>
    <poly id="144472713" type="building" color="255,230,230" fill="1" layer="-1.00" shape="458037.68,5537546.48 458030.57,5537553.13 458036.46,5537559.40 458043.57,5537552.75 458037.68,5537546.48"/>
    <poly id="144472718" type="building" color="255,230,230" fill="1" layer="-1.00" shape="458066.47,5537554.51 458074.27,5537546.82 458082.47,5537555.10 458074.67,5537562.79 458066.47,5537554.51"/>
    <poly id="144472719" type="building" color="255,230,230" fill="1" layer="-1.00" shape="458060.92,5537566.50 458053.40,5537574.11 458060.24,5537580.81 458067.75,5537573.20 458060.92,5537566.50"/>
    <poly id="144472720" type="building" color="255,230,230" fill="1" layer="-1.00" shape="458155.46,5537452.12 458145.60,5537446.99 458150.95,5537436.79 458160.81,5537441.94 458155.46,5537452.12"/>
    <poly id="144472725" type="building" color="255,230,230" fill="1" layer="-1.00" shape="458046.24,5537530.14 458052.22,5537524.55 458054.76,5537522.14 458061.25,5537529.05 458052.71,5537537.03 458046.24,5537530.14"/>
    <poly id="144472727" type="building" color="255,230,230" fill="1" layer="-1.00" shape="458103.37,5537533.26 458093.03,5537523.97 458100.20,5537516.03 458110.55,5537525.31 458103.37,5537533.26"/>
    <poly id="144472729" type="building" color="255,230,230" fill="1" layer="-1.00" shape="457975.34,5537547.43 457982.32,5537554.55 457988.38,5537548.64 457981.40,5537541.52 457975.34,5537547.43"/>
    <poly id="144472732" type="building" color="255,230,230" fill="1" layer="-1.00" shape="458119.66,5537793.27 458117.00,5537784.34 458105.32,5537787.81 458107.98,5537796.74 458119.66,5537793.27"/>
    <poly id="144472734" type="building" color="255,230,230" fill="1" layer="-1.00" shape="458055.10,5537540.08 458061.91,5537533.58 458068.24,5537540.16 458061.43,5537546.67 458055.10,5537540.08"/>
    <poly id="144472737" type="building" color="255,230,230" fill="1" layer="-1.00" shape="458116.45,5537873.60 458131.20,5537879.57 458141.87,5537853.36 458127.11,5537847.39 458116.45,5537873.60"/>
    <poly id="144472738" type="building" color="255,230,230" fill="1" layer="-1.00" shape="457979.69,5537599.55 457975.08,5537593.22 457983.95,5537586.78 457988.79,5537593.41 457986.98,5537594.74 457988.06,5537596.23 457982.77,5537600.07 457981.46,5537598.28 457979.69,5537599.55"/>